version 3
run General-0-20241022-10:47:14-12652
attr configname General
attr datetime 20241022-10:47:14
attr datetimef 20241022-104714
attr experiment General
attr inifile omnetpp.ini
attr iterationvars ""
attr iterationvarsd ""
attr iterationvarsf ""
attr measurement ""
attr network project
attr processid 12652
attr repetition 0
attr replication #0
attr resultdir results
attr runnumber 0
attr seedset 0
config image-path ../../../../../inet-master/inet-master/images
config network project
config real-time-limit 15s
config sim-time-limit 10s
config **.client.numApps 1
config **.client1.app[0].typename TcpSessionApp
config **.client1.app[0].connectAddress "\"server\""
config **.client1.app[0].connectPort 1000
config **.client1.app[0].sendBytes 1MB
config **.client2.numApps 1
config **.client2.app[0].typename TcpSessionApp
config **.client2.app[0].connectAddress "\"server\""
config **.client2.app[0].connectPort 1000
config **.client2.app[0].sendBytes 1MB
config **.client3.numApps 1
config **.client3.app[0].typename TcpSessionApp
config **.client3.app[0].connectAddress "\"server\""
config **.client3.app[0].connectPort 1000
config **.client3.app[0].sendBytes 1MB
config **.client4.numApps 1
config **.client4.app[0].typename TcpSessionApp
config **.client4.app[0].connectAddress "\"server\""
config **.client4.app[0].connectPort 1000
config **.client4.app[0].sendBytes 1MB
config **.server.numApps 1
config **.server.app[0].typename TcpEchoApp
config **.server.app[0].localPort 1000

par project.server.ethg$o[0].channel typename "\"inet.node.ethernet.Eth100M\""
par project.server.ethg$o[0].channel disabled false
attr mutable ""
par project.server.ethg$o[0].channel delay 5e-08s
attr mutable ""
attr unit s
par project.server.ethg$o[0].channel datarate 1e+08bps
attr mutable ""
attr unit bps
par project.server.ethg$o[0].channel ber 0
attr mutable ""
par project.server.ethg$o[0].channel per 0
attr mutable ""
par project.server.ethg$o[0].channel enabledLineStyle "\"solid\""
par project.server.ethg$o[0].channel disabledLineStyle "\"dashed\""
par project.server.ethg$o[0].channel disabledIcon "\"status/cross\""
par project.server.ethg$o[0].channel length 10m
attr unit m
par project.client1.ethg$o[0].channel typename "\"inet.node.ethernet.Eth100M\""
par project.client1.ethg$o[0].channel disabled false
attr mutable ""
par project.client1.ethg$o[0].channel delay 5e-08s
attr mutable ""
attr unit s
par project.client1.ethg$o[0].channel datarate 1e+08bps
attr mutable ""
attr unit bps
par project.client1.ethg$o[0].channel ber 0
attr mutable ""
par project.client1.ethg$o[0].channel per 0
attr mutable ""
par project.client1.ethg$o[0].channel enabledLineStyle "\"solid\""
par project.client1.ethg$o[0].channel disabledLineStyle "\"dashed\""
par project.client1.ethg$o[0].channel disabledIcon "\"status/cross\""
par project.client1.ethg$o[0].channel length 10m
attr unit m
par project.server.ethg$o[1].channel typename "\"inet.node.ethernet.Eth100M\""
par project.server.ethg$o[1].channel disabled false
attr mutable ""
par project.server.ethg$o[1].channel delay 5e-08s
attr mutable ""
attr unit s
par project.server.ethg$o[1].channel datarate 1e+08bps
attr mutable ""
attr unit bps
par project.server.ethg$o[1].channel ber 0
attr mutable ""
par project.server.ethg$o[1].channel per 0
attr mutable ""
par project.server.ethg$o[1].channel enabledLineStyle "\"solid\""
par project.server.ethg$o[1].channel disabledLineStyle "\"dashed\""
par project.server.ethg$o[1].channel disabledIcon "\"status/cross\""
par project.server.ethg$o[1].channel length 10m
attr unit m
par project.client2.ethg$o[0].channel typename "\"inet.node.ethernet.Eth100M\""
par project.client2.ethg$o[0].channel disabled false
attr mutable ""
par project.client2.ethg$o[0].channel delay 5e-08s
attr mutable ""
attr unit s
par project.client2.ethg$o[0].channel datarate 1e+08bps
attr mutable ""
attr unit bps
par project.client2.ethg$o[0].channel ber 0
attr mutable ""
par project.client2.ethg$o[0].channel per 0
attr mutable ""
par project.client2.ethg$o[0].channel enabledLineStyle "\"solid\""
par project.client2.ethg$o[0].channel disabledLineStyle "\"dashed\""
par project.client2.ethg$o[0].channel disabledIcon "\"status/cross\""
par project.client2.ethg$o[0].channel length 10m
attr unit m
par project.server.ethg$o[2].channel typename "\"inet.node.ethernet.Eth100M\""
par project.server.ethg$o[2].channel disabled false
attr mutable ""
par project.server.ethg$o[2].channel delay 5e-08s
attr mutable ""
attr unit s
par project.server.ethg$o[2].channel datarate 1e+08bps
attr mutable ""
attr unit bps
par project.server.ethg$o[2].channel ber 0
attr mutable ""
par project.server.ethg$o[2].channel per 0
attr mutable ""
par project.server.ethg$o[2].channel enabledLineStyle "\"solid\""
par project.server.ethg$o[2].channel disabledLineStyle "\"dashed\""
par project.server.ethg$o[2].channel disabledIcon "\"status/cross\""
par project.server.ethg$o[2].channel length 10m
attr unit m
par project.client3.ethg$o[0].channel typename "\"inet.node.ethernet.Eth100M\""
par project.client3.ethg$o[0].channel disabled false
attr mutable ""
par project.client3.ethg$o[0].channel delay 5e-08s
attr mutable ""
attr unit s
par project.client3.ethg$o[0].channel datarate 1e+08bps
attr mutable ""
attr unit bps
par project.client3.ethg$o[0].channel ber 0
attr mutable ""
par project.client3.ethg$o[0].channel per 0
attr mutable ""
par project.client3.ethg$o[0].channel enabledLineStyle "\"solid\""
par project.client3.ethg$o[0].channel disabledLineStyle "\"dashed\""
par project.client3.ethg$o[0].channel disabledIcon "\"status/cross\""
par project.client3.ethg$o[0].channel length 10m
attr unit m
par project.server.ethg$o[3].channel typename "\"inet.node.ethernet.Eth100M\""
par project.server.ethg$o[3].channel disabled false
attr mutable ""
par project.server.ethg$o[3].channel delay 5e-08s
attr mutable ""
attr unit s
par project.server.ethg$o[3].channel datarate 1e+08bps
attr mutable ""
attr unit bps
par project.server.ethg$o[3].channel ber 0
attr mutable ""
par project.server.ethg$o[3].channel per 0
attr mutable ""
par project.server.ethg$o[3].channel enabledLineStyle "\"solid\""
par project.server.ethg$o[3].channel disabledLineStyle "\"dashed\""
par project.server.ethg$o[3].channel disabledIcon "\"status/cross\""
par project.server.ethg$o[3].channel length 10m
attr unit m
par project.client4.ethg$o[0].channel typename "\"inet.node.ethernet.Eth100M\""
par project.client4.ethg$o[0].channel disabled false
attr mutable ""
par project.client4.ethg$o[0].channel delay 5e-08s
attr mutable ""
attr unit s
par project.client4.ethg$o[0].channel datarate 1e+08bps
attr mutable ""
attr unit bps
par project.client4.ethg$o[0].channel ber 0
attr mutable ""
par project.client4.ethg$o[0].channel per 0
attr mutable ""
par project.client4.ethg$o[0].channel enabledLineStyle "\"solid\""
par project.client4.ethg$o[0].channel disabledLineStyle "\"dashed\""
par project.client4.ethg$o[0].channel disabledIcon "\"status/cross\""
par project.client4.ethg$o[0].channel length 10m
attr unit m
par project.server.ethg$i[0].channel typename "\"ned.IdealChannel\""
par project.server.eth[0].phys$o.channel typename "\"ned.IdealChannel\""
par project.server.ethg$i[1].channel typename "\"ned.IdealChannel\""
par project.server.eth[1].phys$o.channel typename "\"ned.IdealChannel\""
par project.server.ethg$i[2].channel typename "\"ned.IdealChannel\""
par project.server.eth[2].phys$o.channel typename "\"ned.IdealChannel\""
par project.server.ethg$i[3].channel typename "\"ned.IdealChannel\""
par project.server.eth[3].phys$o.channel typename "\"ned.IdealChannel\""
par project.server.interfaceTable typename "\"inet.networklayer.common.InterfaceTable\""
par project.server.interfaceTable displayAddresses false
par project.server.cb typename "\"inet.common.MessageDispatcher\""
par project.server.cb displayStringTextFormat "\"processed %p pk (%l)\""
par project.server.cb interfaceTableModule "\"project.server.interfaceTable\""
par project.server.cb forwardServiceRegistration true
par project.server.cb forwardProtocolRegistration true
par project.server.cb interfaceMapping {}
par project.server.cb serviceMapping {}
par project.server.cb protocolMapping {}
par project.server.bl typename "\"inet.common.MessageDispatcher\""
par project.server.bl displayStringTextFormat "\"processed %p pk (%l)\""
par project.server.bl interfaceTableModule "\"project.server.interfaceTable\""
par project.server.bl forwardServiceRegistration true
par project.server.bl forwardProtocolRegistration true
par project.server.bl interfaceMapping {}
par project.server.bl serviceMapping {}
par project.server.bl protocolMapping {}
par project.server.ethernet typename "\"inet.linklayer.ethernet.basic.EthernetEncapsulation\""
par project.server.ethernet registerProtocol true
par project.server.ethernet interfaceTableModule "\"project.server.interfaceTable\""
par project.server.ethernet fcsMode "\"declared\""
attr enum declared,computed
par project.server.ethernet stopOperationExtraTime -1s
attr unit s
par project.server.ethernet stopOperationTimeout 2s
attr unit s
scalar project.server.ethernet decapPk:count 6
attr interpolationmode none
attr recordingmode count
attr source decapPk
attr title "packets decapsulated, count"
scalar project.server.ethernet decapPk:sum(packetBytes) 276
attr interpolationmode none
attr recordingmode sum(packetBytes)
attr source decapPk
attr title "packets decapsulated, sum(packetBytes)"
scalar project.server.ethernet encapPk:count 3
attr interpolationmode none
attr recordingmode count
attr source encapPk
attr title "packets encapsulated, count"
scalar project.server.ethernet encapPk:sum(packetBytes) 84
attr interpolationmode none
attr recordingmode sum(packetBytes)
attr source encapPk
attr title "packets encapsulated, sum(packetBytes)"
scalar project.server.ethernet pauseSent:count 0
attr recordingmode count
attr title "pause sent, count"
scalar project.server.ethernet pauseSent:sum 0
attr recordingmode sum
attr title "pause sent, sum"
par project.server.li typename "\"inet.common.MessageDispatcher\""
par project.server.li displayStringTextFormat "\"processed %p pk (%l)\""
par project.server.li interfaceTableModule "\"project.server.interfaceTable\""
par project.server.li forwardServiceRegistration true
par project.server.li forwardProtocolRegistration true
par project.server.li interfaceMapping {}
par project.server.li serviceMapping {}
par project.server.li protocolMapping {}
par project.server.lo[0].upperLayerIn.channel typename "\"ned.IdealChannel\""
par project.server.lo[0].lo.upperLayerOut.channel typename "\"ned.IdealChannel\""
par project.server.lo[0].lo typename "\"inet.linklayer.loopback.Loopback\""
par project.server.lo[0].lo interfaceTableModule "\"project.server.interfaceTable\""
par project.server.lo[0].lo mtu 4470B
attr unit B
scalar project.server.lo[0].lo rcvdPkFromHl:count 0
attr interpolationmode none
attr recordingmode count
attr source packetReceivedFromUpper
attr title "packets received from higher layer, count"
scalar project.server.lo[0].lo rcvdPkFromHl:sum(packetBytes) 0
attr interpolationmode none
attr recordingmode sum(packetBytes)
attr source packetReceivedFromUpper
attr title "packets received from higher layer, sum(packetBytes)"
scalar project.server.lo[0].lo passedUpPk:count 0
attr interpolationmode none
attr recordingmode count
attr source packetSentToUpper
attr title "packets passed to higher layer, count"
scalar project.server.lo[0].lo passedUpPk:sum(packetBytes) 0
attr interpolationmode none
attr recordingmode sum(packetBytes)
attr source packetSentToUpper
attr title "packets passed to higher layer, sum(packetBytes)"
par project.server.lo[0] typename "\"inet.linklayer.loopback.LoopbackInterface\""
par project.server.lo[0] displayStringTextFormat "\"%a (%i)\\n%m\""
par project.server.lo[0] recordPcap false
par project.server.lo[0] numPcapRecorders 0
par project.server.lo[0] interfaceTableModule "\"project.server.interfaceTable\""
scalar project.server.lo[0] packetDropInterfaceDown:count 0
attr interpolationmode none
attr recordingmode count
attr source packetDropReasonIsInterfaceDown(packetDropped)
attr title "packet drops: interface down, count"
scalar project.server.lo[0] packetDropInterfaceDown:sum(packetBytes) 0
attr interpolationmode none
attr recordingmode sum(packetBytes)
attr source packetDropReasonIsInterfaceDown(packetDropped)
attr title "packet drops: interface down, sum(packetBytes)"
scalar project.server.lo[0] packetDropNoCarrier:count 0
attr interpolationmode none
attr recordingmode count
attr source packetDropReasonIsNoCarrier(packetDropped)
attr title "packet drops: no carrier, count"
scalar project.server.lo[0] packetDropNoCarrier:sum(packetBytes) 0
attr interpolationmode none
attr recordingmode sum(packetBytes)
attr source packetDropReasonIsNoCarrier(packetDropped)
attr title "packet drops: no carrier, sum(packetBytes)"
par project.server.eth[0].mac.phys$o.channel typename "\"ned.IdealChannel\""
par project.server.eth[0].phys$i.channel typename "\"ned.IdealChannel\""
par project.server.eth[0].upperLayerIn.channel typename "\"ned.IdealChannel\""
par project.server.eth[0].mac.upperLayerOut.channel typename "\"ned.IdealChannel\""
par project.server.eth[0].queue typename "\"inet.linklayer.ethernet.common.EthernetQueue\""
par project.server.eth[0].queue displayStringTextFormat "\"contains %p pk (%l) pushed %u\\npulled %o removed %r dropped %d\""
par project.server.eth[0].queue packetCapacity 1000
par project.server.eth[0].queue dataCapacity -1b
attr unit b
par project.server.eth[0].queue dropperClass "\"inet::queueing::PacketAtCollectionEndDropper\""
par project.server.eth[0].queue comparatorClass "\"inet::EthernetFrameTypeComparator\""
par project.server.eth[0].queue bufferModule "\"\""
scalar project.server.eth[0].queue queueLength:last 0
attr autoWarmupFilter false
attr interpolationmode sample-hold
attr recordingmode last
attr source "warmup(atomic(constant0(packetPushEnded) + count(packetPushStarted) - count(packetPulled) - count(packetRemoved) - count(packetDropped)))"
attr title "queue length, last"
attr unit pk
scalar project.server.eth[0].queue queueLength:max 0
attr autoWarmupFilter false
attr interpolationmode sample-hold
attr recordingmode max
attr source "warmup(atomic(constant0(packetPushEnded) + count(packetPushStarted) - count(packetPulled) - count(packetRemoved) - count(packetDropped)))"
attr title "queue length, max"
attr unit pk
scalar project.server.eth[0].queue queueLength:timeavg 0
attr autoWarmupFilter false
attr interpolationmode sample-hold
attr recordingmode timeavg
attr source "warmup(atomic(constant0(packetPushEnded) + count(packetPushStarted) - count(packetPulled) - count(packetRemoved) - count(packetDropped)))"
attr title "queue length, timeavg"
attr unit pk
scalar project.server.eth[0].queue queueBitLength:last 0
attr autoWarmupFilter false
attr interpolationmode sample-hold
attr recordingmode last
attr source "warmup(atomic(constant0(packetPushEnded) + sum(packetLength(packetPushStarted)) - sum(packetLength(packetPulled)) - sum(packetLength(packetRemoved)) - sum(packetLength(packetDropped))))"
attr title "queue bit length, last"
attr unit b
scalar project.server.eth[0].queue queueBitLength:max 0
attr autoWarmupFilter false
attr interpolationmode sample-hold
attr recordingmode max
attr source "warmup(atomic(constant0(packetPushEnded) + sum(packetLength(packetPushStarted)) - sum(packetLength(packetPulled)) - sum(packetLength(packetRemoved)) - sum(packetLength(packetDropped))))"
attr title "queue bit length, max"
attr unit b
scalar project.server.eth[0].queue queueBitLength:timeavg 0
attr autoWarmupFilter false
attr interpolationmode sample-hold
attr recordingmode timeavg
attr source "warmup(atomic(constant0(packetPushEnded) + sum(packetLength(packetPushStarted)) - sum(packetLength(packetPulled)) - sum(packetLength(packetRemoved)) - sum(packetLength(packetDropped))))"
attr title "queue bit length, timeavg"
attr unit b
statistic project.server.eth[0].queue queueingTime:histogram
field count 0
field mean nan
field stddev nan
field min nan
field max nan
field sum 0
field sqrsum 0
attr interpolationmode none
attr recordingmode histogram
attr source queueingTime(packetPulled)
attr title "queueing times"
attr unit s
bin	-inf	0
bin	0	0
bin	1	0
scalar project.server.eth[0].queue outgoingPackets:count 0
attr recordingmode count
attr source packetPulled
attr title "outgoing packets, count"
attr unit pk
scalar project.server.eth[0].queue outgoingPacketLengths:sum 0
attr interpolationmode none
attr recordingmode sum
attr source packetLength(packetPulled)
attr title "outgoing packet lengths, sum"
attr unit b
statistic project.server.eth[0].queue outgoingPacketLengths:histogram
field count 0
field mean nan
field stddev nan
field min nan
field max nan
field sum 0
field sqrsum 0
attr interpolationmode none
attr recordingmode histogram
attr source packetLength(packetPulled)
attr title "outgoing packet lengths"
attr unit b
bin	-inf	0
bin	0	0
bin	1	0
statistic project.server.eth[0].queue flowQueueingTime:histogram
field count 0
field mean nan
field stddev nan
field min nan
field max nan
field sum 0
field sqrsum 0
attr interpolationmode none
attr recordingmode histogram
attr source queueingTime(demuxFlow(packetPulled))
attr title "flow queueing times"
attr unit s
bin	-inf	0
bin	0	0
bin	1	0
scalar project.server.eth[0].queue incomingPackets:count 0
attr recordingmode count
attr source packetPushStarted
attr title "incoming packets, count"
attr unit pk
scalar project.server.eth[0].queue incomingPacketLengths:sum 0
attr interpolationmode none
attr recordingmode sum
attr source packetLength(packetPushStarted)
attr title "incoming packet lengths, sum"
attr unit b
statistic project.server.eth[0].queue incomingPacketLengths:histogram
field count 0
field mean nan
field stddev nan
field min nan
field max nan
field sum 0
field sqrsum 0
attr interpolationmode none
attr recordingmode histogram
attr source packetLength(packetPushStarted)
attr title "incoming packet lengths"
attr unit b
bin	-inf	0
bin	0	0
bin	1	0
scalar project.server.eth[0].queue droppedPacketsQueueOverflow:count 0
attr interpolationmode none
attr recordingmode count
attr source packetDropReasonIsQueueOverflow(packetDropped)
attr title "dropped packets: queue overflow, count"
attr unit pk
scalar project.server.eth[0].queue droppedPacketLengthsQueueOverflow:sum 0
attr interpolationmode none
attr recordingmode sum
attr source packetLength(packetDropReasonIsQueueOverflow(packetDropped))
attr title "dropped packet lengths: queue overflow, sum"
attr unit b
par project.server.eth[0].mac typename "\"inet.linklayer.ethernet.basic.EthernetMac\""
par project.server.eth[0].mac interfaceTableModule "\"project.server.interfaceTable\""
par project.server.eth[0].mac displayStringTextFormat "\"rate: %b\\nsent: %s, rcvd: %r\\nqueue: %q, drop: %d\""
par project.server.eth[0].mac sendRawBytes false
par project.server.eth[0].mac promiscuous false
par project.server.eth[0].mac duplexMode true
par project.server.eth[0].mac allowNonstandardBitrate false
par project.server.eth[0].mac mtu 1500B
attr unit B
par project.server.eth[0].mac fcsMode "\"declared\""
attr enum declared,computed
par project.server.eth[0].mac stopOperationExtraTime -1s
attr unit s
par project.server.eth[0].mac stopOperationTimeout 2s
attr unit s
scalar project.server.eth[0].mac "simulated time" 1.00001743
scalar project.server.eth[0].mac full-duplex 1
scalar project.server.eth[0].mac "frames/sec sent" 0
scalar project.server.eth[0].mac "frames/sec rcvd" 0
scalar project.server.eth[0].mac "bits/sec sent" 0
scalar project.server.eth[0].mac "bits/sec rcvd" 0
scalar project.server.eth[0].mac "rx channel idle (%)" 100
scalar project.server.eth[0].mac "rx channel utilization (%)" 0
statistic project.server.eth[0].mac throughput:histogram
field count 11
field mean 0
field stddev 0
field min 0
field max 0
field sum 0
field sqrsum 0
attr interpolationmode linear
attr recordingmode histogram
attr source throughput(transmissionEnded)
attr title throughput
attr unit bps
bin	-inf	0
bin	-0.5	0
bin	-0.48	0
bin	-0.46	0
bin	-0.44	0
bin	-0.42	0
bin	-0.4	0
bin	-0.38	0
bin	-0.36	0
bin	-0.34	0
bin	-0.32	0
bin	-0.3	0
bin	-0.28	0
bin	-0.26	0
bin	-0.24	0
bin	-0.22	0
bin	-0.2	0
bin	-0.18	0
bin	-0.16	0
bin	-0.14	0
bin	-0.12	0
bin	-0.1	0
bin	-0.08	0
bin	-0.06	0
bin	-0.04	0
bin	-0.02	0
bin	0	11
bin	0.02	0
bin	0.04	0
bin	0.06	0
bin	0.08	0
bin	0.1	0
bin	0.12	0
bin	0.14	0
bin	0.16	0
bin	0.18	0
bin	0.2	0
bin	0.22	0
bin	0.24	0
bin	0.26	0
bin	0.28	0
bin	0.3	0
bin	0.32	0
bin	0.34	0
bin	0.36	0
bin	0.38	0
bin	0.4	0
bin	0.42	0
bin	0.44	0
bin	0.46	0
bin	0.48	0
bin	0.5	0
statistic project.server.eth[0].mac utilization:histogram
field count 11
field mean 0
field stddev 0
field min 0
field max 0
field sum 0
field sqrsum 0
attr interpolationmode linear
attr recordingmode histogram
attr source "100 * utilization(count(transmissionStarted) - count(transmissionEnded))"
attr title utilization
attr unit %
bin	-inf	0
bin	-0.5	0
bin	-0.48	0
bin	-0.46	0
bin	-0.44	0
bin	-0.42	0
bin	-0.4	0
bin	-0.38	0
bin	-0.36	0
bin	-0.34	0
bin	-0.32	0
bin	-0.3	0
bin	-0.28	0
bin	-0.26	0
bin	-0.24	0
bin	-0.22	0
bin	-0.2	0
bin	-0.18	0
bin	-0.16	0
bin	-0.14	0
bin	-0.12	0
bin	-0.1	0
bin	-0.08	0
bin	-0.06	0
bin	-0.04	0
bin	-0.02	0
bin	0	11
bin	0.02	0
bin	0.04	0
bin	0.06	0
bin	0.08	0
bin	0.1	0
bin	0.12	0
bin	0.14	0
bin	0.16	0
bin	0.18	0
bin	0.2	0
bin	0.22	0
bin	0.24	0
bin	0.26	0
bin	0.28	0
bin	0.3	0
bin	0.32	0
bin	0.34	0
bin	0.36	0
bin	0.38	0
bin	0.4	0
bin	0.42	0
bin	0.44	0
bin	0.46	0
bin	0.48	0
bin	0.5	0
scalar project.server.eth[0].mac txPk:count 0
attr interpolationmode none
attr recordingmode count
attr source packetSentToLower
attr title "packets transmitted, count"
scalar project.server.eth[0].mac txPk:sum(packetBytes) 0
attr interpolationmode none
attr recordingmode sum(packetBytes)
attr source packetSentToLower
attr title "packets transmitted, sum(packetBytes)"
scalar project.server.eth[0].mac packetReceivedFromUpper:count 0
attr interpolationmode none
attr recordingmode count
attr source packetReceivedFromUpper
attr title "packet bytes from higher layer, count"
scalar project.server.eth[0].mac packetReceivedFromUpper:sum(packetBytes) 0
attr interpolationmode none
attr recordingmode sum(packetBytes)
attr source packetReceivedFromUpper
attr title "packet bytes from higher layer, sum(packetBytes)"
scalar project.server.eth[0].mac passedUpPk:count 0
attr interpolationmode none
attr recordingmode count
attr source packetSentToUpper
attr title "packets passed to higher layer, count"
scalar project.server.eth[0].mac passedUpPk:sum(packetBytes) 0
attr interpolationmode none
attr recordingmode sum(packetBytes)
attr source packetSentToUpper
attr title "packets passed to higher layer, sum(packetBytes)"
scalar project.server.eth[0].mac packetDropIncorrectlyReceived:count 0
attr interpolationmode none
attr recordingmode count
attr source packetDropReasonIsIncorrectlyReceived(packetDropped)
attr title "packet drop: incorrectly received, count"
scalar project.server.eth[0].mac packetDropIncorrectlyReceived:sum(packetBytes) 0
attr interpolationmode none
attr recordingmode sum(packetBytes)
attr source packetDropReasonIsIncorrectlyReceived(packetDropped)
attr title "packet drop: incorrectly received, sum(packetBytes)"
scalar project.server.eth[0].mac packetDropInterfaceDown:count 0
attr interpolationmode none
attr recordingmode count
attr source packetDropReasonIsInterfaceDown(packetDropped)
attr title "packet drop: interface down, count"
scalar project.server.eth[0].mac packetDropInterfaceDown:sum(packetBytes) 0
attr interpolationmode none
attr recordingmode sum(packetBytes)
attr source packetDropReasonIsInterfaceDown(packetDropped)
attr title "packet drop: interface down, sum(packetBytes)"
scalar project.server.eth[0].mac packetDropNotAddressedToUs:count 0
attr interpolationmode none
attr recordingmode count
attr source packetDropReasonIsNotAddressedToUs(packetDropped)
attr title "packet drop: not addressed to us, count"
scalar project.server.eth[0].mac packetDropNotAddressedToUs:sum(packetBytes) 0
attr interpolationmode none
attr recordingmode sum(packetBytes)
attr source packetDropReasonIsNotAddressedToUs(packetDropped)
attr title "packet drop: not addressed to us, sum(packetBytes)"
scalar project.server.eth[0].mac rxPausePkUnits:count 0
attr interpolationmode none
attr recordingmode count
attr title "pause units received, count"
scalar project.server.eth[0].mac rxPausePkUnits:sum 0
attr interpolationmode none
attr recordingmode sum
attr title "pause units received, sum"
scalar project.server.eth[0].mac txPausePkUnits:count 0
attr interpolationmode none
attr recordingmode count
attr title "pause units sent, count"
scalar project.server.eth[0].mac txPausePkUnits:sum 0
attr interpolationmode none
attr recordingmode sum
attr title "pause units sent, sum"
scalar project.server.eth[0].mac rxPkOk:count 0
attr interpolationmode none
attr recordingmode count
attr source rxPkOk
attr title "packets received OK, count"
scalar project.server.eth[0].mac rxPkOk:sum(packetBytes) 0
attr interpolationmode none
attr recordingmode sum(packetBytes)
attr source rxPkOk
attr title "packets received OK, sum(packetBytes)"
par project.server.eth[0] typename "\"inet.linklayer.ethernet.basic.EthernetInterface\""
par project.server.eth[0] displayStringTextFormat "\"%a (%i)\\n%m\""
par project.server.eth[0] recordPcap false
par project.server.eth[0] numPcapRecorders 0
par project.server.eth[0] interfaceTableModule "\"project.server.interfaceTable\""
par project.server.eth[0] protocol "\"ethernetmac\""
par project.server.eth[0] address "\"0A-AA-00-00-00-01\""
attr mutable ""
par project.server.eth[0] duplexMode true
par project.server.eth[0] csmacdSupport false
par project.server.eth[0] bitrate 0bps
attr unit bps
par project.server.eth[0] fcsMode "\"declared\""
attr enum declared,computed
scalar project.server.eth[0] packetDropInterfaceDown:count 0
attr interpolationmode none
attr recordingmode count
attr source packetDropReasonIsInterfaceDown(packetDropped)
attr title "packet drops: interface down, count"
scalar project.server.eth[0] packetDropInterfaceDown:sum(packetBytes) 0
attr interpolationmode none
attr recordingmode sum(packetBytes)
attr source packetDropReasonIsInterfaceDown(packetDropped)
attr title "packet drops: interface down, sum(packetBytes)"
scalar project.server.eth[0] packetDropNoCarrier:count 0
attr interpolationmode none
attr recordingmode count
attr source packetDropReasonIsNoCarrier(packetDropped)
attr title "packet drops: no carrier, count"
scalar project.server.eth[0] packetDropNoCarrier:sum(packetBytes) 0
attr interpolationmode none
attr recordingmode sum(packetBytes)
attr source packetDropReasonIsNoCarrier(packetDropped)
attr title "packet drops: no carrier, sum(packetBytes)"
par project.server.eth[1].mac.phys$o.channel typename "\"ned.IdealChannel\""
par project.server.eth[1].phys$i.channel typename "\"ned.IdealChannel\""
par project.server.eth[1].upperLayerIn.channel typename "\"ned.IdealChannel\""
par project.server.eth[1].mac.upperLayerOut.channel typename "\"ned.IdealChannel\""
par project.server.eth[1].queue typename "\"inet.linklayer.ethernet.common.EthernetQueue\""
par project.server.eth[1].queue displayStringTextFormat "\"contains %p pk (%l) pushed %u\\npulled %o removed %r dropped %d\""
par project.server.eth[1].queue packetCapacity 1000
par project.server.eth[1].queue dataCapacity -1b
attr unit b
par project.server.eth[1].queue dropperClass "\"inet::queueing::PacketAtCollectionEndDropper\""
par project.server.eth[1].queue comparatorClass "\"inet::EthernetFrameTypeComparator\""
par project.server.eth[1].queue bufferModule "\"\""
scalar project.server.eth[1].queue queueLength:last 0
attr autoWarmupFilter false
attr interpolationmode sample-hold
attr recordingmode last
attr source "warmup(atomic(constant0(packetPushEnded) + count(packetPushStarted) - count(packetPulled) - count(packetRemoved) - count(packetDropped)))"
attr title "queue length, last"
attr unit pk
scalar project.server.eth[1].queue queueLength:max 0
attr autoWarmupFilter false
attr interpolationmode sample-hold
attr recordingmode max
attr source "warmup(atomic(constant0(packetPushEnded) + count(packetPushStarted) - count(packetPulled) - count(packetRemoved) - count(packetDropped)))"
attr title "queue length, max"
attr unit pk
scalar project.server.eth[1].queue queueLength:timeavg 0
attr autoWarmupFilter false
attr interpolationmode sample-hold
attr recordingmode timeavg
attr source "warmup(atomic(constant0(packetPushEnded) + count(packetPushStarted) - count(packetPulled) - count(packetRemoved) - count(packetDropped)))"
attr title "queue length, timeavg"
attr unit pk
scalar project.server.eth[1].queue queueBitLength:last 0
attr autoWarmupFilter false
attr interpolationmode sample-hold
attr recordingmode last
attr source "warmup(atomic(constant0(packetPushEnded) + sum(packetLength(packetPushStarted)) - sum(packetLength(packetPulled)) - sum(packetLength(packetRemoved)) - sum(packetLength(packetDropped))))"
attr title "queue bit length, last"
attr unit b
scalar project.server.eth[1].queue queueBitLength:max 0
attr autoWarmupFilter false
attr interpolationmode sample-hold
attr recordingmode max
attr source "warmup(atomic(constant0(packetPushEnded) + sum(packetLength(packetPushStarted)) - sum(packetLength(packetPulled)) - sum(packetLength(packetRemoved)) - sum(packetLength(packetDropped))))"
attr title "queue bit length, max"
attr unit b
scalar project.server.eth[1].queue queueBitLength:timeavg 0
attr autoWarmupFilter false
attr interpolationmode sample-hold
attr recordingmode timeavg
attr source "warmup(atomic(constant0(packetPushEnded) + sum(packetLength(packetPushStarted)) - sum(packetLength(packetPulled)) - sum(packetLength(packetRemoved)) - sum(packetLength(packetDropped))))"
attr title "queue bit length, timeavg"
attr unit b
statistic project.server.eth[1].queue queueingTime:histogram
field count 1
field mean 0
field stddev nan
field min 0
field max 0
field sum 0
field sqrsum 0
attr interpolationmode none
attr recordingmode histogram
attr source queueingTime(packetPulled)
attr title "queueing times"
attr unit s
bin	-inf	0
bin	-0.5	0
bin	-0.48	0
bin	-0.46	0
bin	-0.44	0
bin	-0.42	0
bin	-0.4	0
bin	-0.38	0
bin	-0.36	0
bin	-0.34	0
bin	-0.32	0
bin	-0.3	0
bin	-0.28	0
bin	-0.26	0
bin	-0.24	0
bin	-0.22	0
bin	-0.2	0
bin	-0.18	0
bin	-0.16	0
bin	-0.14	0
bin	-0.12	0
bin	-0.1	0
bin	-0.08	0
bin	-0.06	0
bin	-0.04	0
bin	-0.02	0
bin	0	1
bin	0.02	0
bin	0.04	0
bin	0.06	0
bin	0.08	0
bin	0.1	0
bin	0.12	0
bin	0.14	0
bin	0.16	0
bin	0.18	0
bin	0.2	0
bin	0.22	0
bin	0.24	0
bin	0.26	0
bin	0.28	0
bin	0.3	0
bin	0.32	0
bin	0.34	0
bin	0.36	0
bin	0.38	0
bin	0.4	0
bin	0.42	0
bin	0.44	0
bin	0.46	0
bin	0.48	0
bin	0.5	0
scalar project.server.eth[1].queue outgoingPackets:count 1
attr recordingmode count
attr source packetPulled
attr title "outgoing packets, count"
attr unit pk
scalar project.server.eth[1].queue outgoingPacketLengths:sum 368
attr interpolationmode none
attr recordingmode sum
attr source packetLength(packetPulled)
attr title "outgoing packet lengths, sum"
attr unit b
statistic project.server.eth[1].queue outgoingPacketLengths:histogram
field count 1
field mean 368
field stddev nan
field min 368
field max 368
field sum 368
field sqrsum 135424
attr interpolationmode none
attr recordingmode histogram
attr source packetLength(packetPulled)
attr title "outgoing packet lengths"
attr unit b
bin	-inf	0
bin	367	0
bin	368	1
bin	369	0
statistic project.server.eth[1].queue flowQueueingTime:histogram
field count 0
field mean nan
field stddev nan
field min nan
field max nan
field sum 0
field sqrsum 0
attr interpolationmode none
attr recordingmode histogram
attr source queueingTime(demuxFlow(packetPulled))
attr title "flow queueing times"
attr unit s
bin	-inf	0
bin	0	0
bin	1	0
scalar project.server.eth[1].queue incomingPackets:count 1
attr recordingmode count
attr source packetPushStarted
attr title "incoming packets, count"
attr unit pk
scalar project.server.eth[1].queue incomingPacketLengths:sum 368
attr interpolationmode none
attr recordingmode sum
attr source packetLength(packetPushStarted)
attr title "incoming packet lengths, sum"
attr unit b
statistic project.server.eth[1].queue incomingPacketLengths:histogram
field count 1
field mean 368
field stddev nan
field min 368
field max 368
field sum 368
field sqrsum 135424
attr interpolationmode none
attr recordingmode histogram
attr source packetLength(packetPushStarted)
attr title "incoming packet lengths"
attr unit b
bin	-inf	0
bin	367	0
bin	368	1
bin	369	0
scalar project.server.eth[1].queue droppedPacketsQueueOverflow:count 0
attr interpolationmode none
attr recordingmode count
attr source packetDropReasonIsQueueOverflow(packetDropped)
attr title "dropped packets: queue overflow, count"
attr unit pk
scalar project.server.eth[1].queue droppedPacketLengthsQueueOverflow:sum 0
attr interpolationmode none
attr recordingmode sum
attr source packetLength(packetDropReasonIsQueueOverflow(packetDropped))
attr title "dropped packet lengths: queue overflow, sum"
attr unit b
par project.server.eth[1].mac typename "\"inet.linklayer.ethernet.basic.EthernetMac\""
par project.server.eth[1].mac interfaceTableModule "\"project.server.interfaceTable\""
par project.server.eth[1].mac displayStringTextFormat "\"rate: %b\\nsent: %s, rcvd: %r\\nqueue: %q, drop: %d\""
par project.server.eth[1].mac sendRawBytes false
par project.server.eth[1].mac promiscuous false
par project.server.eth[1].mac duplexMode true
par project.server.eth[1].mac allowNonstandardBitrate false
par project.server.eth[1].mac mtu 1500B
attr unit B
par project.server.eth[1].mac fcsMode "\"declared\""
attr enum declared,computed
par project.server.eth[1].mac stopOperationExtraTime -1s
attr unit s
par project.server.eth[1].mac stopOperationTimeout 2s
attr unit s
scalar project.server.eth[1].mac "simulated time" 1.00001743
scalar project.server.eth[1].mac full-duplex 1
scalar project.server.eth[1].mac "frames/sec sent" 0.9999825703038
scalar project.server.eth[1].mac "frames/sec rcvd" 1.9999651406076
scalar project.server.eth[1].mac "bits/sec sent" 511.99107599555
scalar project.server.eth[1].mac "bits/sec rcvd" 1023.9821519911
scalar project.server.eth[1].mac "rx channel idle (%)" 99.998848020079
scalar project.server.eth[1].mac "rx channel utilization (%)" 0.00115197992099
statistic project.server.eth[1].mac throughput:histogram
field count 11
field mean 3004224.6909717
field stddev 9963886.0858745
field min 0
field max 33046471.600688
field sum 33046471.600688
field sqrsum 1.0920692852551e+15
attr interpolationmode linear
attr recordingmode histogram
attr source throughput(transmissionEnded)
attr title throughput
attr unit bps
bin	-inf	0
bin	0	10
bin	500000	0
bin	1000000	0
bin	1500000	0
bin	2000000	0
bin	2500000	0
bin	3000000	0
bin	3500000	0
bin	4000000	0
bin	4500000	0
bin	5000000	0
bin	5500000	0
bin	6000000	0
bin	6500000	0
bin	7000000	0
bin	7500000	0
bin	8000000	0
bin	8500000	0
bin	9000000	0
bin	9500000	0
bin	10000000	0
bin	10500000	0
bin	11000000	0
bin	11500000	0
bin	12000000	0
bin	12500000	0
bin	13000000	0
bin	13500000	0
bin	14000000	0
bin	14500000	0
bin	15000000	0
bin	15500000	0
bin	16000000	0
bin	16500000	0
bin	17000000	0
bin	17500000	0
bin	18000000	0
bin	18500000	0
bin	19000000	0
bin	19500000	0
bin	20000000	0
bin	20500000	0
bin	21000000	0
bin	21500000	0
bin	22000000	0
bin	22500000	0
bin	23000000	0
bin	23500000	0
bin	24000000	0
bin	24500000	0
bin	25000000	0
bin	25500000	0
bin	26000000	0
bin	26500000	0
bin	27000000	0
bin	27500000	0
bin	28000000	0
bin	28500000	0
bin	29000000	0
bin	29500000	0
bin	30000000	0
bin	30500000	0
bin	31000000	0
bin	31500000	0
bin	32000000	0
bin	32500000	0
bin	33000000	1
bin	33500000	0
bin	34000000	0
bin	34500000	0
bin	35000000	0
bin	35500000	0
bin	36000000	0
bin	36500000	0
bin	37000000	0
bin	37500000	0
bin	38000000	0
bin	38500000	0
bin	39000000	0
bin	39500000	0
bin	40000000	0
bin	40500000	0
bin	41000000	0
bin	41500000	0
statistic project.server.eth[1].mac utilization:histogram
field count 11
field mean 3.0042246909717
field stddev 9.9638860858745
field min 0
field max 33.046471600688
field sum 33.046471600688
field sqrsum 1092.0692852551
attr interpolationmode linear
attr recordingmode histogram
attr source "100 * utilization(count(transmissionStarted) - count(transmissionEnded))"
attr title utilization
attr unit %
bin	-inf	0
bin	0	10
bin	0.5	0
bin	1	0
bin	1.5	0
bin	2	0
bin	2.5	0
bin	3	0
bin	3.5	0
bin	4	0
bin	4.5	0
bin	5	0
bin	5.5	0
bin	6	0
bin	6.5	0
bin	7	0
bin	7.5	0
bin	8	0
bin	8.5	0
bin	9	0
bin	9.5	0
bin	10	0
bin	10.5	0
bin	11	0
bin	11.5	0
bin	12	0
bin	12.5	0
bin	13	0
bin	13.5	0
bin	14	0
bin	14.5	0
bin	15	0
bin	15.5	0
bin	16	0
bin	16.5	0
bin	17	0
bin	17.5	0
bin	18	0
bin	18.5	0
bin	19	0
bin	19.5	0
bin	20	0
bin	20.5	0
bin	21	0
bin	21.5	0
bin	22	0
bin	22.5	0
bin	23	0
bin	23.5	0
bin	24	0
bin	24.5	0
bin	25	0
bin	25.5	0
bin	26	0
bin	26.5	0
bin	27	0
bin	27.5	0
bin	28	0
bin	28.5	0
bin	29	0
bin	29.5	0
bin	30	0
bin	30.5	0
bin	31	0
bin	31.5	0
bin	32	0
bin	32.5	0
bin	33	1
bin	33.5	0
bin	34	0
bin	34.5	0
bin	35	0
bin	35.5	0
bin	36	0
bin	36.5	0
bin	37	0
bin	37.5	0
bin	38	0
bin	38.5	0
bin	39	0
bin	39.5	0
bin	40	0
bin	40.5	0
bin	41	0
bin	41.5	0
scalar project.server.eth[1].mac txPk:count 1
attr interpolationmode none
attr recordingmode count
attr source packetSentToLower
attr title "packets transmitted, count"
scalar project.server.eth[1].mac txPk:sum(packetBytes) 64
attr interpolationmode none
attr recordingmode sum(packetBytes)
attr source packetSentToLower
attr title "packets transmitted, sum(packetBytes)"
scalar project.server.eth[1].mac packetReceivedFromUpper:count 1
attr interpolationmode none
attr recordingmode count
attr source packetReceivedFromUpper
attr title "packet bytes from higher layer, count"
scalar project.server.eth[1].mac packetReceivedFromUpper:sum(packetBytes) 46
attr interpolationmode none
attr recordingmode sum(packetBytes)
attr source packetReceivedFromUpper
attr title "packet bytes from higher layer, sum(packetBytes)"
scalar project.server.eth[1].mac passedUpPk:count 2
attr interpolationmode none
attr recordingmode count
attr source packetSentToUpper
attr title "packets passed to higher layer, count"
scalar project.server.eth[1].mac passedUpPk:sum(packetBytes) 128
attr interpolationmode none
attr recordingmode sum(packetBytes)
attr source packetSentToUpper
attr title "packets passed to higher layer, sum(packetBytes)"
scalar project.server.eth[1].mac packetDropIncorrectlyReceived:count 0
attr interpolationmode none
attr recordingmode count
attr source packetDropReasonIsIncorrectlyReceived(packetDropped)
attr title "packet drop: incorrectly received, count"
scalar project.server.eth[1].mac packetDropIncorrectlyReceived:sum(packetBytes) 0
attr interpolationmode none
attr recordingmode sum(packetBytes)
attr source packetDropReasonIsIncorrectlyReceived(packetDropped)
attr title "packet drop: incorrectly received, sum(packetBytes)"
scalar project.server.eth[1].mac packetDropInterfaceDown:count 0
attr interpolationmode none
attr recordingmode count
attr source packetDropReasonIsInterfaceDown(packetDropped)
attr title "packet drop: interface down, count"
scalar project.server.eth[1].mac packetDropInterfaceDown:sum(packetBytes) 0
attr interpolationmode none
attr recordingmode sum(packetBytes)
attr source packetDropReasonIsInterfaceDown(packetDropped)
attr title "packet drop: interface down, sum(packetBytes)"
scalar project.server.eth[1].mac packetDropNotAddressedToUs:count 0
attr interpolationmode none
attr recordingmode count
attr source packetDropReasonIsNotAddressedToUs(packetDropped)
attr title "packet drop: not addressed to us, count"
scalar project.server.eth[1].mac packetDropNotAddressedToUs:sum(packetBytes) 0
attr interpolationmode none
attr recordingmode sum(packetBytes)
attr source packetDropReasonIsNotAddressedToUs(packetDropped)
attr title "packet drop: not addressed to us, sum(packetBytes)"
scalar project.server.eth[1].mac rxPausePkUnits:count 0
attr interpolationmode none
attr recordingmode count
attr title "pause units received, count"
scalar project.server.eth[1].mac rxPausePkUnits:sum 0
attr interpolationmode none
attr recordingmode sum
attr title "pause units received, sum"
scalar project.server.eth[1].mac txPausePkUnits:count 0
attr interpolationmode none
attr recordingmode count
attr title "pause units sent, count"
scalar project.server.eth[1].mac txPausePkUnits:sum 0
attr interpolationmode none
attr recordingmode sum
attr title "pause units sent, sum"
scalar project.server.eth[1].mac rxPkOk:count 2
attr interpolationmode none
attr recordingmode count
attr source rxPkOk
attr title "packets received OK, count"
scalar project.server.eth[1].mac rxPkOk:sum(packetBytes) 128
attr interpolationmode none
attr recordingmode sum(packetBytes)
attr source rxPkOk
attr title "packets received OK, sum(packetBytes)"
par project.server.eth[1] typename "\"inet.linklayer.ethernet.basic.EthernetInterface\""
par project.server.eth[1] displayStringTextFormat "\"%a (%i)\\n%m\""
par project.server.eth[1] recordPcap false
par project.server.eth[1] numPcapRecorders 0
par project.server.eth[1] interfaceTableModule "\"project.server.interfaceTable\""
par project.server.eth[1] protocol "\"ethernetmac\""
par project.server.eth[1] address "\"0A-AA-00-00-00-02\""
attr mutable ""
par project.server.eth[1] duplexMode true
par project.server.eth[1] csmacdSupport false
par project.server.eth[1] bitrate 0bps
attr unit bps
par project.server.eth[1] fcsMode "\"declared\""
attr enum declared,computed
scalar project.server.eth[1] packetDropInterfaceDown:count 0
attr interpolationmode none
attr recordingmode count
attr source packetDropReasonIsInterfaceDown(packetDropped)
attr title "packet drops: interface down, count"
scalar project.server.eth[1] packetDropInterfaceDown:sum(packetBytes) 0
attr interpolationmode none
attr recordingmode sum(packetBytes)
attr source packetDropReasonIsInterfaceDown(packetDropped)
attr title "packet drops: interface down, sum(packetBytes)"
scalar project.server.eth[1] packetDropNoCarrier:count 0
attr interpolationmode none
attr recordingmode count
attr source packetDropReasonIsNoCarrier(packetDropped)
attr title "packet drops: no carrier, count"
scalar project.server.eth[1] packetDropNoCarrier:sum(packetBytes) 0
attr interpolationmode none
attr recordingmode sum(packetBytes)
attr source packetDropReasonIsNoCarrier(packetDropped)
attr title "packet drops: no carrier, sum(packetBytes)"
par project.server.eth[2].mac.phys$o.channel typename "\"ned.IdealChannel\""
par project.server.eth[2].phys$i.channel typename "\"ned.IdealChannel\""
par project.server.eth[2].upperLayerIn.channel typename "\"ned.IdealChannel\""
par project.server.eth[2].mac.upperLayerOut.channel typename "\"ned.IdealChannel\""
par project.server.eth[2].queue typename "\"inet.linklayer.ethernet.common.EthernetQueue\""
par project.server.eth[2].queue displayStringTextFormat "\"contains %p pk (%l) pushed %u\\npulled %o removed %r dropped %d\""
par project.server.eth[2].queue packetCapacity 1000
par project.server.eth[2].queue dataCapacity -1b
attr unit b
par project.server.eth[2].queue dropperClass "\"inet::queueing::PacketAtCollectionEndDropper\""
par project.server.eth[2].queue comparatorClass "\"inet::EthernetFrameTypeComparator\""
par project.server.eth[2].queue bufferModule "\"\""
scalar project.server.eth[2].queue queueLength:last 0
attr autoWarmupFilter false
attr interpolationmode sample-hold
attr recordingmode last
attr source "warmup(atomic(constant0(packetPushEnded) + count(packetPushStarted) - count(packetPulled) - count(packetRemoved) - count(packetDropped)))"
attr title "queue length, last"
attr unit pk
scalar project.server.eth[2].queue queueLength:max 0
attr autoWarmupFilter false
attr interpolationmode sample-hold
attr recordingmode max
attr source "warmup(atomic(constant0(packetPushEnded) + count(packetPushStarted) - count(packetPulled) - count(packetRemoved) - count(packetDropped)))"
attr title "queue length, max"
attr unit pk
scalar project.server.eth[2].queue queueLength:timeavg 0
attr autoWarmupFilter false
attr interpolationmode sample-hold
attr recordingmode timeavg
attr source "warmup(atomic(constant0(packetPushEnded) + count(packetPushStarted) - count(packetPulled) - count(packetRemoved) - count(packetDropped)))"
attr title "queue length, timeavg"
attr unit pk
scalar project.server.eth[2].queue queueBitLength:last 0
attr autoWarmupFilter false
attr interpolationmode sample-hold
attr recordingmode last
attr source "warmup(atomic(constant0(packetPushEnded) + sum(packetLength(packetPushStarted)) - sum(packetLength(packetPulled)) - sum(packetLength(packetRemoved)) - sum(packetLength(packetDropped))))"
attr title "queue bit length, last"
attr unit b
scalar project.server.eth[2].queue queueBitLength:max 0
attr autoWarmupFilter false
attr interpolationmode sample-hold
attr recordingmode max
attr source "warmup(atomic(constant0(packetPushEnded) + sum(packetLength(packetPushStarted)) - sum(packetLength(packetPulled)) - sum(packetLength(packetRemoved)) - sum(packetLength(packetDropped))))"
attr title "queue bit length, max"
attr unit b
scalar project.server.eth[2].queue queueBitLength:timeavg 0
attr autoWarmupFilter false
attr interpolationmode sample-hold
attr recordingmode timeavg
attr source "warmup(atomic(constant0(packetPushEnded) + sum(packetLength(packetPushStarted)) - sum(packetLength(packetPulled)) - sum(packetLength(packetRemoved)) - sum(packetLength(packetDropped))))"
attr title "queue bit length, timeavg"
attr unit b
statistic project.server.eth[2].queue queueingTime:histogram
field count 1
field mean 0
field stddev nan
field min 0
field max 0
field sum 0
field sqrsum 0
attr interpolationmode none
attr recordingmode histogram
attr source queueingTime(packetPulled)
attr title "queueing times"
attr unit s
bin	-inf	0
bin	-0.5	0
bin	-0.48	0
bin	-0.46	0
bin	-0.44	0
bin	-0.42	0
bin	-0.4	0
bin	-0.38	0
bin	-0.36	0
bin	-0.34	0
bin	-0.32	0
bin	-0.3	0
bin	-0.28	0
bin	-0.26	0
bin	-0.24	0
bin	-0.22	0
bin	-0.2	0
bin	-0.18	0
bin	-0.16	0
bin	-0.14	0
bin	-0.12	0
bin	-0.1	0
bin	-0.08	0
bin	-0.06	0
bin	-0.04	0
bin	-0.02	0
bin	0	1
bin	0.02	0
bin	0.04	0
bin	0.06	0
bin	0.08	0
bin	0.1	0
bin	0.12	0
bin	0.14	0
bin	0.16	0
bin	0.18	0
bin	0.2	0
bin	0.22	0
bin	0.24	0
bin	0.26	0
bin	0.28	0
bin	0.3	0
bin	0.32	0
bin	0.34	0
bin	0.36	0
bin	0.38	0
bin	0.4	0
bin	0.42	0
bin	0.44	0
bin	0.46	0
bin	0.48	0
bin	0.5	0
scalar project.server.eth[2].queue outgoingPackets:count 1
attr recordingmode count
attr source packetPulled
attr title "outgoing packets, count"
attr unit pk
scalar project.server.eth[2].queue outgoingPacketLengths:sum 368
attr interpolationmode none
attr recordingmode sum
attr source packetLength(packetPulled)
attr title "outgoing packet lengths, sum"
attr unit b
statistic project.server.eth[2].queue outgoingPacketLengths:histogram
field count 1
field mean 368
field stddev nan
field min 368
field max 368
field sum 368
field sqrsum 135424
attr interpolationmode none
attr recordingmode histogram
attr source packetLength(packetPulled)
attr title "outgoing packet lengths"
attr unit b
bin	-inf	0
bin	367	0
bin	368	1
bin	369	0
statistic project.server.eth[2].queue flowQueueingTime:histogram
field count 0
field mean nan
field stddev nan
field min nan
field max nan
field sum 0
field sqrsum 0
attr interpolationmode none
attr recordingmode histogram
attr source queueingTime(demuxFlow(packetPulled))
attr title "flow queueing times"
attr unit s
bin	-inf	0
bin	0	0
bin	1	0
scalar project.server.eth[2].queue incomingPackets:count 1
attr recordingmode count
attr source packetPushStarted
attr title "incoming packets, count"
attr unit pk
scalar project.server.eth[2].queue incomingPacketLengths:sum 368
attr interpolationmode none
attr recordingmode sum
attr source packetLength(packetPushStarted)
attr title "incoming packet lengths, sum"
attr unit b
statistic project.server.eth[2].queue incomingPacketLengths:histogram
field count 1
field mean 368
field stddev nan
field min 368
field max 368
field sum 368
field sqrsum 135424
attr interpolationmode none
attr recordingmode histogram
attr source packetLength(packetPushStarted)
attr title "incoming packet lengths"
attr unit b
bin	-inf	0
bin	367	0
bin	368	1
bin	369	0
scalar project.server.eth[2].queue droppedPacketsQueueOverflow:count 0
attr interpolationmode none
attr recordingmode count
attr source packetDropReasonIsQueueOverflow(packetDropped)
attr title "dropped packets: queue overflow, count"
attr unit pk
scalar project.server.eth[2].queue droppedPacketLengthsQueueOverflow:sum 0
attr interpolationmode none
attr recordingmode sum
attr source packetLength(packetDropReasonIsQueueOverflow(packetDropped))
attr title "dropped packet lengths: queue overflow, sum"
attr unit b
par project.server.eth[2].mac typename "\"inet.linklayer.ethernet.basic.EthernetMac\""
par project.server.eth[2].mac interfaceTableModule "\"project.server.interfaceTable\""
par project.server.eth[2].mac displayStringTextFormat "\"rate: %b\\nsent: %s, rcvd: %r\\nqueue: %q, drop: %d\""
par project.server.eth[2].mac sendRawBytes false
par project.server.eth[2].mac promiscuous false
par project.server.eth[2].mac duplexMode true
par project.server.eth[2].mac allowNonstandardBitrate false
par project.server.eth[2].mac mtu 1500B
attr unit B
par project.server.eth[2].mac fcsMode "\"declared\""
attr enum declared,computed
par project.server.eth[2].mac stopOperationExtraTime -1s
attr unit s
par project.server.eth[2].mac stopOperationTimeout 2s
attr unit s
scalar project.server.eth[2].mac "simulated time" 1.00001743
scalar project.server.eth[2].mac full-duplex 1
scalar project.server.eth[2].mac "frames/sec sent" 0.9999825703038
scalar project.server.eth[2].mac "frames/sec rcvd" 1.9999651406076
scalar project.server.eth[2].mac "bits/sec sent" 511.99107599555
scalar project.server.eth[2].mac "bits/sec rcvd" 1023.9821519911
scalar project.server.eth[2].mac "rx channel idle (%)" 99.998848020079
scalar project.server.eth[2].mac "rx channel utilization (%)" 0.00115197992099
statistic project.server.eth[2].mac throughput:histogram
field count 11
field mean 3004224.6909717
field stddev 9963886.0858745
field min 0
field max 33046471.600688
field sum 33046471.600688
field sqrsum 1.0920692852551e+15
attr interpolationmode linear
attr recordingmode histogram
attr source throughput(transmissionEnded)
attr title throughput
attr unit bps
bin	-inf	0
bin	0	10
bin	500000	0
bin	1000000	0
bin	1500000	0
bin	2000000	0
bin	2500000	0
bin	3000000	0
bin	3500000	0
bin	4000000	0
bin	4500000	0
bin	5000000	0
bin	5500000	0
bin	6000000	0
bin	6500000	0
bin	7000000	0
bin	7500000	0
bin	8000000	0
bin	8500000	0
bin	9000000	0
bin	9500000	0
bin	10000000	0
bin	10500000	0
bin	11000000	0
bin	11500000	0
bin	12000000	0
bin	12500000	0
bin	13000000	0
bin	13500000	0
bin	14000000	0
bin	14500000	0
bin	15000000	0
bin	15500000	0
bin	16000000	0
bin	16500000	0
bin	17000000	0
bin	17500000	0
bin	18000000	0
bin	18500000	0
bin	19000000	0
bin	19500000	0
bin	20000000	0
bin	20500000	0
bin	21000000	0
bin	21500000	0
bin	22000000	0
bin	22500000	0
bin	23000000	0
bin	23500000	0
bin	24000000	0
bin	24500000	0
bin	25000000	0
bin	25500000	0
bin	26000000	0
bin	26500000	0
bin	27000000	0
bin	27500000	0
bin	28000000	0
bin	28500000	0
bin	29000000	0
bin	29500000	0
bin	30000000	0
bin	30500000	0
bin	31000000	0
bin	31500000	0
bin	32000000	0
bin	32500000	0
bin	33000000	1
bin	33500000	0
bin	34000000	0
bin	34500000	0
bin	35000000	0
bin	35500000	0
bin	36000000	0
bin	36500000	0
bin	37000000	0
bin	37500000	0
bin	38000000	0
bin	38500000	0
bin	39000000	0
bin	39500000	0
bin	40000000	0
bin	40500000	0
bin	41000000	0
bin	41500000	0
statistic project.server.eth[2].mac utilization:histogram
field count 11
field mean 3.0042246909717
field stddev 9.9638860858745
field min 0
field max 33.046471600688
field sum 33.046471600688
field sqrsum 1092.0692852551
attr interpolationmode linear
attr recordingmode histogram
attr source "100 * utilization(count(transmissionStarted) - count(transmissionEnded))"
attr title utilization
attr unit %
bin	-inf	0
bin	0	10
bin	0.5	0
bin	1	0
bin	1.5	0
bin	2	0
bin	2.5	0
bin	3	0
bin	3.5	0
bin	4	0
bin	4.5	0
bin	5	0
bin	5.5	0
bin	6	0
bin	6.5	0
bin	7	0
bin	7.5	0
bin	8	0
bin	8.5	0
bin	9	0
bin	9.5	0
bin	10	0
bin	10.5	0
bin	11	0
bin	11.5	0
bin	12	0
bin	12.5	0
bin	13	0
bin	13.5	0
bin	14	0
bin	14.5	0
bin	15	0
bin	15.5	0
bin	16	0
bin	16.5	0
bin	17	0
bin	17.5	0
bin	18	0
bin	18.5	0
bin	19	0
bin	19.5	0
bin	20	0
bin	20.5	0
bin	21	0
bin	21.5	0
bin	22	0
bin	22.5	0
bin	23	0
bin	23.5	0
bin	24	0
bin	24.5	0
bin	25	0
bin	25.5	0
bin	26	0
bin	26.5	0
bin	27	0
bin	27.5	0
bin	28	0
bin	28.5	0
bin	29	0
bin	29.5	0
bin	30	0
bin	30.5	0
bin	31	0
bin	31.5	0
bin	32	0
bin	32.5	0
bin	33	1
bin	33.5	0
bin	34	0
bin	34.5	0
bin	35	0
bin	35.5	0
bin	36	0
bin	36.5	0
bin	37	0
bin	37.5	0
bin	38	0
bin	38.5	0
bin	39	0
bin	39.5	0
bin	40	0
bin	40.5	0
bin	41	0
bin	41.5	0
scalar project.server.eth[2].mac txPk:count 1
attr interpolationmode none
attr recordingmode count
attr source packetSentToLower
attr title "packets transmitted, count"
scalar project.server.eth[2].mac txPk:sum(packetBytes) 64
attr interpolationmode none
attr recordingmode sum(packetBytes)
attr source packetSentToLower
attr title "packets transmitted, sum(packetBytes)"
scalar project.server.eth[2].mac packetReceivedFromUpper:count 1
attr interpolationmode none
attr recordingmode count
attr source packetReceivedFromUpper
attr title "packet bytes from higher layer, count"
scalar project.server.eth[2].mac packetReceivedFromUpper:sum(packetBytes) 46
attr interpolationmode none
attr recordingmode sum(packetBytes)
attr source packetReceivedFromUpper
attr title "packet bytes from higher layer, sum(packetBytes)"
scalar project.server.eth[2].mac passedUpPk:count 2
attr interpolationmode none
attr recordingmode count
attr source packetSentToUpper
attr title "packets passed to higher layer, count"
scalar project.server.eth[2].mac passedUpPk:sum(packetBytes) 128
attr interpolationmode none
attr recordingmode sum(packetBytes)
attr source packetSentToUpper
attr title "packets passed to higher layer, sum(packetBytes)"
scalar project.server.eth[2].mac packetDropIncorrectlyReceived:count 0
attr interpolationmode none
attr recordingmode count
attr source packetDropReasonIsIncorrectlyReceived(packetDropped)
attr title "packet drop: incorrectly received, count"
scalar project.server.eth[2].mac packetDropIncorrectlyReceived:sum(packetBytes) 0
attr interpolationmode none
attr recordingmode sum(packetBytes)
attr source packetDropReasonIsIncorrectlyReceived(packetDropped)
attr title "packet drop: incorrectly received, sum(packetBytes)"
scalar project.server.eth[2].mac packetDropInterfaceDown:count 0
attr interpolationmode none
attr recordingmode count
attr source packetDropReasonIsInterfaceDown(packetDropped)
attr title "packet drop: interface down, count"
scalar project.server.eth[2].mac packetDropInterfaceDown:sum(packetBytes) 0
attr interpolationmode none
attr recordingmode sum(packetBytes)
attr source packetDropReasonIsInterfaceDown(packetDropped)
attr title "packet drop: interface down, sum(packetBytes)"
scalar project.server.eth[2].mac packetDropNotAddressedToUs:count 0
attr interpolationmode none
attr recordingmode count
attr source packetDropReasonIsNotAddressedToUs(packetDropped)
attr title "packet drop: not addressed to us, count"
scalar project.server.eth[2].mac packetDropNotAddressedToUs:sum(packetBytes) 0
attr interpolationmode none
attr recordingmode sum(packetBytes)
attr source packetDropReasonIsNotAddressedToUs(packetDropped)
attr title "packet drop: not addressed to us, sum(packetBytes)"
scalar project.server.eth[2].mac rxPausePkUnits:count 0
attr interpolationmode none
attr recordingmode count
attr title "pause units received, count"
scalar project.server.eth[2].mac rxPausePkUnits:sum 0
attr interpolationmode none
attr recordingmode sum
attr title "pause units received, sum"
scalar project.server.eth[2].mac txPausePkUnits:count 0
attr interpolationmode none
attr recordingmode count
attr title "pause units sent, count"
scalar project.server.eth[2].mac txPausePkUnits:sum 0
attr interpolationmode none
attr recordingmode sum
attr title "pause units sent, sum"
scalar project.server.eth[2].mac rxPkOk:count 2
attr interpolationmode none
attr recordingmode count
attr source rxPkOk
attr title "packets received OK, count"
scalar project.server.eth[2].mac rxPkOk:sum(packetBytes) 128
attr interpolationmode none
attr recordingmode sum(packetBytes)
attr source rxPkOk
attr title "packets received OK, sum(packetBytes)"
par project.server.eth[2] typename "\"inet.linklayer.ethernet.basic.EthernetInterface\""
par project.server.eth[2] displayStringTextFormat "\"%a (%i)\\n%m\""
par project.server.eth[2] recordPcap false
par project.server.eth[2] numPcapRecorders 0
par project.server.eth[2] interfaceTableModule "\"project.server.interfaceTable\""
par project.server.eth[2] protocol "\"ethernetmac\""
par project.server.eth[2] address "\"0A-AA-00-00-00-03\""
attr mutable ""
par project.server.eth[2] duplexMode true
par project.server.eth[2] csmacdSupport false
par project.server.eth[2] bitrate 0bps
attr unit bps
par project.server.eth[2] fcsMode "\"declared\""
attr enum declared,computed
scalar project.server.eth[2] packetDropInterfaceDown:count 0
attr interpolationmode none
attr recordingmode count
attr source packetDropReasonIsInterfaceDown(packetDropped)
attr title "packet drops: interface down, count"
scalar project.server.eth[2] packetDropInterfaceDown:sum(packetBytes) 0
attr interpolationmode none
attr recordingmode sum(packetBytes)
attr source packetDropReasonIsInterfaceDown(packetDropped)
attr title "packet drops: interface down, sum(packetBytes)"
scalar project.server.eth[2] packetDropNoCarrier:count 0
attr interpolationmode none
attr recordingmode count
attr source packetDropReasonIsNoCarrier(packetDropped)
attr title "packet drops: no carrier, count"
scalar project.server.eth[2] packetDropNoCarrier:sum(packetBytes) 0
attr interpolationmode none
attr recordingmode sum(packetBytes)
attr source packetDropReasonIsNoCarrier(packetDropped)
attr title "packet drops: no carrier, sum(packetBytes)"
par project.server.eth[3].mac.phys$o.channel typename "\"ned.IdealChannel\""
par project.server.eth[3].phys$i.channel typename "\"ned.IdealChannel\""
par project.server.eth[3].upperLayerIn.channel typename "\"ned.IdealChannel\""
par project.server.eth[3].mac.upperLayerOut.channel typename "\"ned.IdealChannel\""
par project.server.eth[3].queue typename "\"inet.linklayer.ethernet.common.EthernetQueue\""
par project.server.eth[3].queue displayStringTextFormat "\"contains %p pk (%l) pushed %u\\npulled %o removed %r dropped %d\""
par project.server.eth[3].queue packetCapacity 1000
par project.server.eth[3].queue dataCapacity -1b
attr unit b
par project.server.eth[3].queue dropperClass "\"inet::queueing::PacketAtCollectionEndDropper\""
par project.server.eth[3].queue comparatorClass "\"inet::EthernetFrameTypeComparator\""
par project.server.eth[3].queue bufferModule "\"\""
scalar project.server.eth[3].queue queueLength:last 0
attr autoWarmupFilter false
attr interpolationmode sample-hold
attr recordingmode last
attr source "warmup(atomic(constant0(packetPushEnded) + count(packetPushStarted) - count(packetPulled) - count(packetRemoved) - count(packetDropped)))"
attr title "queue length, last"
attr unit pk
scalar project.server.eth[3].queue queueLength:max 0
attr autoWarmupFilter false
attr interpolationmode sample-hold
attr recordingmode max
attr source "warmup(atomic(constant0(packetPushEnded) + count(packetPushStarted) - count(packetPulled) - count(packetRemoved) - count(packetDropped)))"
attr title "queue length, max"
attr unit pk
scalar project.server.eth[3].queue queueLength:timeavg 0
attr autoWarmupFilter false
attr interpolationmode sample-hold
attr recordingmode timeavg
attr source "warmup(atomic(constant0(packetPushEnded) + count(packetPushStarted) - count(packetPulled) - count(packetRemoved) - count(packetDropped)))"
attr title "queue length, timeavg"
attr unit pk
scalar project.server.eth[3].queue queueBitLength:last 0
attr autoWarmupFilter false
attr interpolationmode sample-hold
attr recordingmode last
attr source "warmup(atomic(constant0(packetPushEnded) + sum(packetLength(packetPushStarted)) - sum(packetLength(packetPulled)) - sum(packetLength(packetRemoved)) - sum(packetLength(packetDropped))))"
attr title "queue bit length, last"
attr unit b
scalar project.server.eth[3].queue queueBitLength:max 0
attr autoWarmupFilter false
attr interpolationmode sample-hold
attr recordingmode max
attr source "warmup(atomic(constant0(packetPushEnded) + sum(packetLength(packetPushStarted)) - sum(packetLength(packetPulled)) - sum(packetLength(packetRemoved)) - sum(packetLength(packetDropped))))"
attr title "queue bit length, max"
attr unit b
scalar project.server.eth[3].queue queueBitLength:timeavg 0
attr autoWarmupFilter false
attr interpolationmode sample-hold
attr recordingmode timeavg
attr source "warmup(atomic(constant0(packetPushEnded) + sum(packetLength(packetPushStarted)) - sum(packetLength(packetPulled)) - sum(packetLength(packetRemoved)) - sum(packetLength(packetDropped))))"
attr title "queue bit length, timeavg"
attr unit b
statistic project.server.eth[3].queue queueingTime:histogram
field count 1
field mean 0
field stddev nan
field min 0
field max 0
field sum 0
field sqrsum 0
attr interpolationmode none
attr recordingmode histogram
attr source queueingTime(packetPulled)
attr title "queueing times"
attr unit s
bin	-inf	0
bin	-0.5	0
bin	-0.48	0
bin	-0.46	0
bin	-0.44	0
bin	-0.42	0
bin	-0.4	0
bin	-0.38	0
bin	-0.36	0
bin	-0.34	0
bin	-0.32	0
bin	-0.3	0
bin	-0.28	0
bin	-0.26	0
bin	-0.24	0
bin	-0.22	0
bin	-0.2	0
bin	-0.18	0
bin	-0.16	0
bin	-0.14	0
bin	-0.12	0
bin	-0.1	0
bin	-0.08	0
bin	-0.06	0
bin	-0.04	0
bin	-0.02	0
bin	0	1
bin	0.02	0
bin	0.04	0
bin	0.06	0
bin	0.08	0
bin	0.1	0
bin	0.12	0
bin	0.14	0
bin	0.16	0
bin	0.18	0
bin	0.2	0
bin	0.22	0
bin	0.24	0
bin	0.26	0
bin	0.28	0
bin	0.3	0
bin	0.32	0
bin	0.34	0
bin	0.36	0
bin	0.38	0
bin	0.4	0
bin	0.42	0
bin	0.44	0
bin	0.46	0
bin	0.48	0
bin	0.5	0
scalar project.server.eth[3].queue outgoingPackets:count 1
attr recordingmode count
attr source packetPulled
attr title "outgoing packets, count"
attr unit pk
scalar project.server.eth[3].queue outgoingPacketLengths:sum 368
attr interpolationmode none
attr recordingmode sum
attr source packetLength(packetPulled)
attr title "outgoing packet lengths, sum"
attr unit b
statistic project.server.eth[3].queue outgoingPacketLengths:histogram
field count 1
field mean 368
field stddev nan
field min 368
field max 368
field sum 368
field sqrsum 135424
attr interpolationmode none
attr recordingmode histogram
attr source packetLength(packetPulled)
attr title "outgoing packet lengths"
attr unit b
bin	-inf	0
bin	367	0
bin	368	1
bin	369	0
statistic project.server.eth[3].queue flowQueueingTime:histogram
field count 0
field mean nan
field stddev nan
field min nan
field max nan
field sum 0
field sqrsum 0
attr interpolationmode none
attr recordingmode histogram
attr source queueingTime(demuxFlow(packetPulled))
attr title "flow queueing times"
attr unit s
bin	-inf	0
bin	0	0
bin	1	0
scalar project.server.eth[3].queue incomingPackets:count 1
attr recordingmode count
attr source packetPushStarted
attr title "incoming packets, count"
attr unit pk
scalar project.server.eth[3].queue incomingPacketLengths:sum 368
attr interpolationmode none
attr recordingmode sum
attr source packetLength(packetPushStarted)
attr title "incoming packet lengths, sum"
attr unit b
statistic project.server.eth[3].queue incomingPacketLengths:histogram
field count 1
field mean 368
field stddev nan
field min 368
field max 368
field sum 368
field sqrsum 135424
attr interpolationmode none
attr recordingmode histogram
attr source packetLength(packetPushStarted)
attr title "incoming packet lengths"
attr unit b
bin	-inf	0
bin	367	0
bin	368	1
bin	369	0
scalar project.server.eth[3].queue droppedPacketsQueueOverflow:count 0
attr interpolationmode none
attr recordingmode count
attr source packetDropReasonIsQueueOverflow(packetDropped)
attr title "dropped packets: queue overflow, count"
attr unit pk
scalar project.server.eth[3].queue droppedPacketLengthsQueueOverflow:sum 0
attr interpolationmode none
attr recordingmode sum
attr source packetLength(packetDropReasonIsQueueOverflow(packetDropped))
attr title "dropped packet lengths: queue overflow, sum"
attr unit b
par project.server.eth[3].mac typename "\"inet.linklayer.ethernet.basic.EthernetMac\""
par project.server.eth[3].mac interfaceTableModule "\"project.server.interfaceTable\""
par project.server.eth[3].mac displayStringTextFormat "\"rate: %b\\nsent: %s, rcvd: %r\\nqueue: %q, drop: %d\""
par project.server.eth[3].mac sendRawBytes false
par project.server.eth[3].mac promiscuous false
par project.server.eth[3].mac duplexMode true
par project.server.eth[3].mac allowNonstandardBitrate false
par project.server.eth[3].mac mtu 1500B
attr unit B
par project.server.eth[3].mac fcsMode "\"declared\""
attr enum declared,computed
par project.server.eth[3].mac stopOperationExtraTime -1s
attr unit s
par project.server.eth[3].mac stopOperationTimeout 2s
attr unit s
scalar project.server.eth[3].mac "simulated time" 1.00001743
scalar project.server.eth[3].mac full-duplex 1
scalar project.server.eth[3].mac "frames/sec sent" 0.9999825703038
scalar project.server.eth[3].mac "frames/sec rcvd" 1.9999651406076
scalar project.server.eth[3].mac "bits/sec sent" 511.99107599555
scalar project.server.eth[3].mac "bits/sec rcvd" 1023.9821519911
scalar project.server.eth[3].mac "rx channel idle (%)" 99.998848020079
scalar project.server.eth[3].mac "rx channel utilization (%)" 0.00115197992099
statistic project.server.eth[3].mac throughput:histogram
field count 11
field mean 3004224.6909717
field stddev 9963886.0858745
field min 0
field max 33046471.600688
field sum 33046471.600688
field sqrsum 1.0920692852551e+15
attr interpolationmode linear
attr recordingmode histogram
attr source throughput(transmissionEnded)
attr title throughput
attr unit bps
bin	-inf	0
bin	0	10
bin	500000	0
bin	1000000	0
bin	1500000	0
bin	2000000	0
bin	2500000	0
bin	3000000	0
bin	3500000	0
bin	4000000	0
bin	4500000	0
bin	5000000	0
bin	5500000	0
bin	6000000	0
bin	6500000	0
bin	7000000	0
bin	7500000	0
bin	8000000	0
bin	8500000	0
bin	9000000	0
bin	9500000	0
bin	10000000	0
bin	10500000	0
bin	11000000	0
bin	11500000	0
bin	12000000	0
bin	12500000	0
bin	13000000	0
bin	13500000	0
bin	14000000	0
bin	14500000	0
bin	15000000	0
bin	15500000	0
bin	16000000	0
bin	16500000	0
bin	17000000	0
bin	17500000	0
bin	18000000	0
bin	18500000	0
bin	19000000	0
bin	19500000	0
bin	20000000	0
bin	20500000	0
bin	21000000	0
bin	21500000	0
bin	22000000	0
bin	22500000	0
bin	23000000	0
bin	23500000	0
bin	24000000	0
bin	24500000	0
bin	25000000	0
bin	25500000	0
bin	26000000	0
bin	26500000	0
bin	27000000	0
bin	27500000	0
bin	28000000	0
bin	28500000	0
bin	29000000	0
bin	29500000	0
bin	30000000	0
bin	30500000	0
bin	31000000	0
bin	31500000	0
bin	32000000	0
bin	32500000	0
bin	33000000	1
bin	33500000	0
bin	34000000	0
bin	34500000	0
bin	35000000	0
bin	35500000	0
bin	36000000	0
bin	36500000	0
bin	37000000	0
bin	37500000	0
bin	38000000	0
bin	38500000	0
bin	39000000	0
bin	39500000	0
bin	40000000	0
bin	40500000	0
bin	41000000	0
bin	41500000	0
statistic project.server.eth[3].mac utilization:histogram
field count 11
field mean 3.0042246909717
field stddev 9.9638860858745
field min 0
field max 33.046471600688
field sum 33.046471600688
field sqrsum 1092.0692852551
attr interpolationmode linear
attr recordingmode histogram
attr source "100 * utilization(count(transmissionStarted) - count(transmissionEnded))"
attr title utilization
attr unit %
bin	-inf	0
bin	0	10
bin	0.5	0
bin	1	0
bin	1.5	0
bin	2	0
bin	2.5	0
bin	3	0
bin	3.5	0
bin	4	0
bin	4.5	0
bin	5	0
bin	5.5	0
bin	6	0
bin	6.5	0
bin	7	0
bin	7.5	0
bin	8	0
bin	8.5	0
bin	9	0
bin	9.5	0
bin	10	0
bin	10.5	0
bin	11	0
bin	11.5	0
bin	12	0
bin	12.5	0
bin	13	0
bin	13.5	0
bin	14	0
bin	14.5	0
bin	15	0
bin	15.5	0
bin	16	0
bin	16.5	0
bin	17	0
bin	17.5	0
bin	18	0
bin	18.5	0
bin	19	0
bin	19.5	0
bin	20	0
bin	20.5	0
bin	21	0
bin	21.5	0
bin	22	0
bin	22.5	0
bin	23	0
bin	23.5	0
bin	24	0
bin	24.5	0
bin	25	0
bin	25.5	0
bin	26	0
bin	26.5	0
bin	27	0
bin	27.5	0
bin	28	0
bin	28.5	0
bin	29	0
bin	29.5	0
bin	30	0
bin	30.5	0
bin	31	0
bin	31.5	0
bin	32	0
bin	32.5	0
bin	33	1
bin	33.5	0
bin	34	0
bin	34.5	0
bin	35	0
bin	35.5	0
bin	36	0
bin	36.5	0
bin	37	0
bin	37.5	0
bin	38	0
bin	38.5	0
bin	39	0
bin	39.5	0
bin	40	0
bin	40.5	0
bin	41	0
bin	41.5	0
scalar project.server.eth[3].mac txPk:count 1
attr interpolationmode none
attr recordingmode count
attr source packetSentToLower
attr title "packets transmitted, count"
scalar project.server.eth[3].mac txPk:sum(packetBytes) 64
attr interpolationmode none
attr recordingmode sum(packetBytes)
attr source packetSentToLower
attr title "packets transmitted, sum(packetBytes)"
scalar project.server.eth[3].mac packetReceivedFromUpper:count 1
attr interpolationmode none
attr recordingmode count
attr source packetReceivedFromUpper
attr title "packet bytes from higher layer, count"
scalar project.server.eth[3].mac packetReceivedFromUpper:sum(packetBytes) 46
attr interpolationmode none
attr recordingmode sum(packetBytes)
attr source packetReceivedFromUpper
attr title "packet bytes from higher layer, sum(packetBytes)"
scalar project.server.eth[3].mac passedUpPk:count 2
attr interpolationmode none
attr recordingmode count
attr source packetSentToUpper
attr title "packets passed to higher layer, count"
scalar project.server.eth[3].mac passedUpPk:sum(packetBytes) 128
attr interpolationmode none
attr recordingmode sum(packetBytes)
attr source packetSentToUpper
attr title "packets passed to higher layer, sum(packetBytes)"
scalar project.server.eth[3].mac packetDropIncorrectlyReceived:count 0
attr interpolationmode none
attr recordingmode count
attr source packetDropReasonIsIncorrectlyReceived(packetDropped)
attr title "packet drop: incorrectly received, count"
scalar project.server.eth[3].mac packetDropIncorrectlyReceived:sum(packetBytes) 0
attr interpolationmode none
attr recordingmode sum(packetBytes)
attr source packetDropReasonIsIncorrectlyReceived(packetDropped)
attr title "packet drop: incorrectly received, sum(packetBytes)"
scalar project.server.eth[3].mac packetDropInterfaceDown:count 0
attr interpolationmode none
attr recordingmode count
attr source packetDropReasonIsInterfaceDown(packetDropped)
attr title "packet drop: interface down, count"
scalar project.server.eth[3].mac packetDropInterfaceDown:sum(packetBytes) 0
attr interpolationmode none
attr recordingmode sum(packetBytes)
attr source packetDropReasonIsInterfaceDown(packetDropped)
attr title "packet drop: interface down, sum(packetBytes)"
scalar project.server.eth[3].mac packetDropNotAddressedToUs:count 0
attr interpolationmode none
attr recordingmode count
attr source packetDropReasonIsNotAddressedToUs(packetDropped)
attr title "packet drop: not addressed to us, count"
scalar project.server.eth[3].mac packetDropNotAddressedToUs:sum(packetBytes) 0
attr interpolationmode none
attr recordingmode sum(packetBytes)
attr source packetDropReasonIsNotAddressedToUs(packetDropped)
attr title "packet drop: not addressed to us, sum(packetBytes)"
scalar project.server.eth[3].mac rxPausePkUnits:count 0
attr interpolationmode none
attr recordingmode count
attr title "pause units received, count"
scalar project.server.eth[3].mac rxPausePkUnits:sum 0
attr interpolationmode none
attr recordingmode sum
attr title "pause units received, sum"
scalar project.server.eth[3].mac txPausePkUnits:count 0
attr interpolationmode none
attr recordingmode count
attr title "pause units sent, count"
scalar project.server.eth[3].mac txPausePkUnits:sum 0
attr interpolationmode none
attr recordingmode sum
attr title "pause units sent, sum"
scalar project.server.eth[3].mac rxPkOk:count 2
attr interpolationmode none
attr recordingmode count
attr source rxPkOk
attr title "packets received OK, count"
scalar project.server.eth[3].mac rxPkOk:sum(packetBytes) 128
attr interpolationmode none
attr recordingmode sum(packetBytes)
attr source rxPkOk
attr title "packets received OK, sum(packetBytes)"
par project.server.eth[3] typename "\"inet.linklayer.ethernet.basic.EthernetInterface\""
par project.server.eth[3] displayStringTextFormat "\"%a (%i)\\n%m\""
par project.server.eth[3] recordPcap false
par project.server.eth[3] numPcapRecorders 0
par project.server.eth[3] interfaceTableModule "\"project.server.interfaceTable\""
par project.server.eth[3] protocol "\"ethernetmac\""
par project.server.eth[3] address "\"0A-AA-00-00-00-04\""
attr mutable ""
par project.server.eth[3] duplexMode true
par project.server.eth[3] csmacdSupport false
par project.server.eth[3] bitrate 0bps
attr unit bps
par project.server.eth[3] fcsMode "\"declared\""
attr enum declared,computed
scalar project.server.eth[3] packetDropInterfaceDown:count 0
attr interpolationmode none
attr recordingmode count
attr source packetDropReasonIsInterfaceDown(packetDropped)
attr title "packet drops: interface down, count"
scalar project.server.eth[3] packetDropInterfaceDown:sum(packetBytes) 0
attr interpolationmode none
attr recordingmode sum(packetBytes)
attr source packetDropReasonIsInterfaceDown(packetDropped)
attr title "packet drops: interface down, sum(packetBytes)"
scalar project.server.eth[3] packetDropNoCarrier:count 0
attr interpolationmode none
attr recordingmode count
attr source packetDropReasonIsNoCarrier(packetDropped)
attr title "packet drops: no carrier, count"
scalar project.server.eth[3] packetDropNoCarrier:sum(packetBytes) 0
attr interpolationmode none
attr recordingmode sum(packetBytes)
attr source packetDropReasonIsNoCarrier(packetDropped)
attr title "packet drops: no carrier, sum(packetBytes)"
par project.server.ipv4.transportIn.channel typename "\"ned.IdealChannel\""
par project.server.ipv4.up.out[0].channel typename "\"ned.IdealChannel\""
par project.server.ipv4.lp.out[2].channel typename "\"ned.IdealChannel\""
par project.server.ipv4.ifIn.channel typename "\"ned.IdealChannel\""
par project.server.ipv4.configurator typename "\"inet.networklayer.configurator.ipv4.Ipv4NodeConfigurator\""
par project.server.ipv4.configurator interfaceTableModule "\"project.server.interfaceTable\""
par project.server.ipv4.configurator routingTableModule "\"project.server.ipv4.routingTable\""
par project.server.ipv4.configurator networkConfiguratorModule "\"configurator\""
par project.server.ipv4.configurator configureRoutingTable true
par project.server.ipv4.routingTable typename "\"inet.networklayer.ipv4.Ipv4RoutingTable\""
par project.server.ipv4.routingTable interfaceTableModule "\"project.server.interfaceTable\""
par project.server.ipv4.routingTable routerId "\"auto\""
par project.server.ipv4.routingTable netmaskRoutes "\"*\""
par project.server.ipv4.routingTable forwarding false
par project.server.ipv4.routingTable multicastForwarding false
par project.server.ipv4.routingTable useAdminDist false
par project.server.ipv4.routingTable routingFile "\"\""
par project.server.ipv4.natTable typename "\"inet.networklayer.ipv4.Ipv4NatTable\""
par project.server.ipv4.natTable networkProtocolModule "\"^.ip\""
par project.server.ipv4.natTable config "<config/> at content:1"
par project.server.ipv4.up typename "\"inet.common.MessageDispatcher\""
par project.server.ipv4.up displayStringTextFormat "\"processed %p pk (%l)\""
par project.server.ipv4.up interfaceTableModule "\"project.server.interfaceTable\""
par project.server.ipv4.up forwardServiceRegistration true
par project.server.ipv4.up forwardProtocolRegistration true
par project.server.ipv4.up interfaceMapping {}
par project.server.ipv4.up serviceMapping {}
par project.server.ipv4.up protocolMapping {}
par project.server.ipv4.igmp typename "\"inet.networklayer.ipv4.Igmpv2\""
par project.server.ipv4.igmp interfaceTableModule "\"project.server.interfaceTable\""
par project.server.ipv4.igmp routingTableModule "\"project.server.ipv4.routingTable\""
par project.server.ipv4.igmp crcMode "\"declared\""
attr enum declared,computed
par project.server.ipv4.igmp enabled true
par project.server.ipv4.igmp robustnessVariable 2
par project.server.ipv4.igmp queryInterval 125s
attr unit s
par project.server.ipv4.igmp queryResponseInterval 10s
attr unit s
par project.server.ipv4.igmp groupMembershipInterval 260s
attr unit s
par project.server.ipv4.igmp otherQuerierPresentInterval 255s
attr unit s
par project.server.ipv4.igmp startupQueryInterval 31.25s
attr unit s
par project.server.ipv4.igmp startupQueryCount 2
par project.server.ipv4.igmp lastMemberQueryInterval 1s
attr unit s
par project.server.ipv4.igmp lastMemberQueryCount 2
par project.server.ipv4.igmp unsolicitedReportInterval 10s
attr unit s
par project.server.ipv4.icmp typename "\"inet.networklayer.ipv4.Icmp\""
par project.server.ipv4.icmp interfaceTableModule "\"project.server.interfaceTable\""
par project.server.ipv4.icmp routingTableModule "\"project.server.ipv4.routingTable\""
par project.server.ipv4.icmp crcMode "\"declared\""
attr enum declared,computed
attr mutable ""
par project.server.ipv4.icmp quoteLength 8B
attr mutable ""
attr unit B
par project.server.ipv4.mp typename "\"inet.common.MessageDispatcher\""
par project.server.ipv4.mp displayStringTextFormat "\"processed %p pk (%l)\""
par project.server.ipv4.mp interfaceTableModule "\"project.server.interfaceTable\""
[...]
attr title "packet drops: no carrier, sum(packetBytes)"
par project.client4.ipv4.transportIn.channel typename "\"ned.IdealChannel\""
par project.client4.ipv4.up.out[0].channel typename "\"ned.IdealChannel\""
par project.client4.ipv4.lp.out[2].channel typename "\"ned.IdealChannel\""
par project.client4.ipv4.ifIn.channel typename "\"ned.IdealChannel\""
par project.client4.ipv4.configurator typename "\"inet.networklayer.configurator.ipv4.Ipv4NodeConfigurator\""
par project.client4.ipv4.configurator interfaceTableModule "\"project.client4.interfaceTable\""
par project.client4.ipv4.configurator routingTableModule "\"project.client4.ipv4.routingTable\""
par project.client4.ipv4.configurator networkConfiguratorModule "\"configurator\""
par project.client4.ipv4.configurator configureRoutingTable true
par project.client4.ipv4.routingTable typename "\"inet.networklayer.ipv4.Ipv4RoutingTable\""
par project.client4.ipv4.routingTable interfaceTableModule "\"project.client4.interfaceTable\""
par project.client4.ipv4.routingTable routerId "\"auto\""
par project.client4.ipv4.routingTable netmaskRoutes "\"*\""
par project.client4.ipv4.routingTable forwarding false
par project.client4.ipv4.routingTable multicastForwarding false
par project.client4.ipv4.routingTable useAdminDist false
par project.client4.ipv4.routingTable routingFile "\"\""
par project.client4.ipv4.natTable typename "\"inet.networklayer.ipv4.Ipv4NatTable\""
par project.client4.ipv4.natTable networkProtocolModule "\"^.ip\""
par project.client4.ipv4.natTable config "<config/> at content:1"
par project.client4.ipv4.up typename "\"inet.common.MessageDispatcher\""
par project.client4.ipv4.up displayStringTextFormat "\"processed %p pk (%l)\""
par project.client4.ipv4.up interfaceTableModule "\"project.client4.interfaceTable\""
par project.client4.ipv4.up forwardServiceRegistration true
par project.client4.ipv4.up forwardProtocolRegistration true
par project.client4.ipv4.up interfaceMapping {}
par project.client4.ipv4.up serviceMapping {}
par project.client4.ipv4.up protocolMapping {}
par project.client4.ipv4.igmp typename "\"inet.networklayer.ipv4.Igmpv2\""
par project.client4.ipv4.igmp interfaceTableModule "\"project.client4.interfaceTable\""
par project.client4.ipv4.igmp routingTableModule "\"project.client4.ipv4.routingTable\""
par project.client4.ipv4.igmp crcMode "\"declared\""
attr enum declared,computed
par project.client4.ipv4.igmp enabled true
par project.client4.ipv4.igmp robustnessVariable 2
par project.client4.ipv4.igmp queryInterval 125s
attr unit s
par project.client4.ipv4.igmp queryResponseInterval 10s
attr unit s
par project.client4.ipv4.igmp groupMembershipInterval 260s
attr unit s
par project.client4.ipv4.igmp otherQuerierPresentInterval 255s
attr unit s
par project.client4.ipv4.igmp startupQueryInterval 31.25s
attr unit s
par project.client4.ipv4.igmp startupQueryCount 2
par project.client4.ipv4.igmp lastMemberQueryInterval 1s
attr unit s
par project.client4.ipv4.igmp lastMemberQueryCount 2
par project.client4.ipv4.igmp unsolicitedReportInterval 10s
attr unit s
par project.client4.ipv4.icmp typename "\"inet.networklayer.ipv4.Icmp\""
par project.client4.ipv4.icmp interfaceTableModule "\"project.client4.interfaceTable\""
par project.client4.ipv4.icmp routingTableModule "\"project.client4.ipv4.routingTable\""
par project.client4.ipv4.icmp crcMode "\"declared\""
attr enum declared,computed
attr mutable ""
par project.client4.ipv4.icmp quoteLength 8B
attr mutable ""
attr unit B
par project.client4.ipv4.mp typename "\"inet.common.MessageDispatcher\""
par project.client4.ipv4.mp displayStringTextFormat "\"processed %p pk (%l)\""
par project.client4.ipv4.mp interfaceTableModule "\"project.client4.interfaceTable\""
par project.client4.ipv4.mp forwardServiceRegistration true
par project.client4.ipv4.mp forwardProtocolRegistration true
par project.client4.ipv4.mp interfaceMapping {}
par project.client4.ipv4.mp serviceMapping {}
par project.client4.ipv4.mp protocolMapping {}
par project.client4.ipv4.ip typename "\"inet.networklayer.ipv4.Ipv4\""
par project.client4.ipv4.ip interfaceTableModule "\"project.client4.interfaceTable\""
par project.client4.ipv4.ip routingTableModule "\"project.client4.ipv4.routingTable\""
par project.client4.ipv4.ip arpModule "\"project.client4.ipv4.arp\""
par project.client4.ipv4.ip icmpModule "\"project.client4.ipv4.icmp\""
par project.client4.ipv4.ip crcMode "\"declared\""
attr enum declared,computed
par project.client4.ipv4.ip timeToLive 32
par project.client4.ipv4.ip multicastTimeToLive 32
par project.client4.ipv4.ip fragmentTimeout 60s
attr unit s
par project.client4.ipv4.ip limitedBroadcast false
par project.client4.ipv4.ip directBroadcastInterfaces "\"\""
par project.client4.ipv4.ip enableLocalOutMulticastRouting false
par project.client4.ipv4.ip enableTimestampOption false
par project.client4.ipv4.ip maxLifetime -1s
attr unit s
scalar project.client4.ipv4.ip packetDropAddressResolutionFailed:count 0
attr interpolationmode none
attr recordingmode count
attr source packetDropReasonIsAddressResolutionFailed(packetDropped)
attr title "packet drop: address resolution failed, count"
scalar project.client4.ipv4.ip packetDropAddressResolutionFailed:sum(packetBytes) 0
attr interpolationmode none
attr recordingmode sum(packetBytes)
attr source packetDropReasonIsAddressResolutionFailed(packetDropped)
attr title "packet drop: address resolution failed, sum(packetBytes)"
scalar project.client4.ipv4.ip packetDropHopLimitReached:count 0
attr interpolationmode none
attr recordingmode count
attr source packetDropReasonIsHopLimitReached(packetDropped)
attr title "packet drop: hop limit reached, count"
scalar project.client4.ipv4.ip packetDropHopLimitReached:sum(packetBytes) 0
attr interpolationmode none
attr recordingmode sum(packetBytes)
attr source packetDropReasonIsHopLimitReached(packetDropped)
attr title "packet drop: hop limit reached, sum(packetBytes)"
scalar project.client4.ipv4.ip packetDropForwardingDisabled:count 0
attr interpolationmode none
attr recordingmode count
attr source packetDropReasonIsForwardingDisabled(packetDropped)
attr title "packet drop: forwarding disabled, count"
scalar project.client4.ipv4.ip packetDropForwardingDisabled:sum(packetBytes) 0
attr interpolationmode none
attr recordingmode sum(packetBytes)
attr source packetDropReasonIsForwardingDisabled(packetDropped)
attr title "packet drop: forwarding disabled, sum(packetBytes)"
scalar project.client4.ipv4.ip packetDropLifetimeExpired:count 0
attr interpolationmode none
attr recordingmode count
attr source packetDropReasonIsLifetimeExpired(packetDropped)
attr title "packet drop: lifetime expired, count"
scalar project.client4.ipv4.ip packetDropLifetimeExpired:sum(packetBytes) 0
attr interpolationmode none
attr recordingmode sum(packetBytes)
attr source packetDropReasonIsLifetimeExpired(packetDropped)
attr title "packet drop: lifetime expired, sum(packetBytes)"
scalar project.client4.ipv4.ip packetDropNoInterfaceFound:count 0
attr interpolationmode none
attr recordingmode count
attr source packetDropReasonIsNoInterfaceFound(packetDropped)
attr title "packet drop: no interface found, count"
scalar project.client4.ipv4.ip packetDropNoInterfaceFound:sum(packetBytes) 0
attr interpolationmode none
attr recordingmode sum(packetBytes)
attr source packetDropReasonIsNoInterfaceFound(packetDropped)
attr title "packet drop: no interface found, sum(packetBytes)"
scalar project.client4.ipv4.ip packetDropNoRouteFound:count 0
attr interpolationmode none
attr recordingmode count
attr source packetDropReasonIsNoRouteFound(packetDropped)
attr title "packet drop: no route found, count"
scalar project.client4.ipv4.ip packetDropNoRouteFound:sum(packetBytes) 0
attr interpolationmode none
attr recordingmode sum(packetBytes)
attr source packetDropReasonIsNoRouteFound(packetDropped)
attr title "packet drop: no route found, sum(packetBytes)"
scalar project.client4.ipv4.ip packetDropUndefined:count 0
attr interpolationmode none
attr recordingmode count
attr source packetDropReasonIsUndefined(packetDropped)
attr title "packet drop: undefined, count"
scalar project.client4.ipv4.ip packetDropUndefined:sum(packetBytes) 0
attr interpolationmode none
attr recordingmode sum(packetBytes)
attr source packetDropReasonIsUndefined(packetDropped)
attr title "packet drop: undefined, sum(packetBytes)"
par project.client4.ipv4.arp typename "\"inet.networklayer.arp.ipv4.Arp\""
par project.client4.ipv4.arp interfaceTableModule "\"project.client4.interfaceTable\""
par project.client4.ipv4.arp routingTableModule "\"project.client4.ipv4.routingTable\""
par project.client4.ipv4.arp retryTimeout 1s
attr unit s
par project.client4.ipv4.arp retryCount 3
par project.client4.ipv4.arp cacheTimeout 120s
attr unit s
par project.client4.ipv4.arp proxyArpInterfaces "\"\""
scalar project.client4.ipv4.arp arpReplySent:count 0
attr recordingmode count
attr source arpReplySent
attr title "ARP replies sent, count"
scalar project.client4.ipv4.arp arpReplySent:sum(packetBytes) 0
attr recordingmode sum(packetBytes)
attr source arpReplySent
attr title "ARP replies sent, sum(packetBytes)"
scalar project.client4.ipv4.arp arpRequestSent:count 1
attr recordingmode count
attr source arpRequestSent
attr title "ARP request sent, count"
scalar project.client4.ipv4.arp arpRequestSent:sum(packetBytes) 28
attr recordingmode sum(packetBytes)
attr source arpRequestSent
attr title "ARP request sent, sum(packetBytes)"
scalar project.client4.ipv4.arp arpResolutionFailed:count 0
attr recordingmode count
attr title "ARP failed resolutions, count"
scalar project.client4.ipv4.arp arpResolutionCompleted:count 1
attr recordingmode count
attr title "ARP completed resolutions, count"
scalar project.client4.ipv4.arp arpResolutionInitiated:count 1
attr recordingmode count
attr title "ARP initiated resolutions, count"
par project.client4.ipv4.lp typename "\"inet.common.MessageDispatcher\""
par project.client4.ipv4.lp displayStringTextFormat "\"processed %p pk (%l)\""
par project.client4.ipv4.lp interfaceTableModule "\"project.client4.interfaceTable\""
par project.client4.ipv4.lp forwardServiceRegistration true
par project.client4.ipv4.lp forwardProtocolRegistration true
par project.client4.ipv4.lp interfaceMapping {}
par project.client4.ipv4.lp serviceMapping {}
par project.client4.ipv4.lp protocolMapping {}
par project.client4.ipv4 typename "\"inet.networklayer.ipv4.Ipv4NetworkLayer\""
par project.client4.ipv4 forwarding false
par project.client4.ipv4 multicastForwarding false
par project.client4.ipv4 hasIpsec false
par project.client4.ipv4 interfaceTableModule "\"project.client4.interfaceTable\""
par project.client4.ipv4 displayStringTextFormat "\"%i\""
par project.client4.nl typename "\"inet.common.MessageDispatcher\""
par project.client4.nl displayStringTextFormat "\"processed %p pk (%l)\""
par project.client4.nl interfaceTableModule "\"project.client4.interfaceTable\""
par project.client4.nl forwardServiceRegistration true
par project.client4.nl forwardProtocolRegistration true
par project.client4.nl interfaceMapping {}
par project.client4.nl serviceMapping {}
par project.client4.nl protocolMapping {}
par project.client4.udp typename "\"inet.transportlayer.udp.Udp\""
par project.client4.udp interfaceTableModule "\"project.client4.interfaceTable\""
par project.client4.udp icmpModule "\"^.ipv4.icmp\""
par project.client4.udp icmpv6Module "\"^.ipv6.icmpv6\""
par project.client4.udp crcMode "\"declared\""
attr enum disabled,declared,computed
par project.client4.udp defaultMulticastLoop true
scalar project.client4.udp packetReceived:count 0
attr interpolationmode none
attr recordingmode count
attr source packetReceived
attr title "packets received, count"
scalar project.client4.udp packetReceived:sum(packetBytes) 0
attr interpolationmode none
attr recordingmode sum(packetBytes)
attr source packetReceived
attr title "packets received, sum(packetBytes)"
scalar project.client4.udp packetSent:count 0
attr interpolationmode none
attr recordingmode count
attr source packetSent
attr title "packets sent, count"
scalar project.client4.udp packetSent:sum(packetBytes) 0
attr interpolationmode none
attr recordingmode sum(packetBytes)
attr source packetSent
attr title "packets sent, sum(packetBytes)"
scalar project.client4.udp passedUpPk:count 0
attr interpolationmode none
attr recordingmode count
attr source packetSentToUpper
attr title "packets passed up, count"
scalar project.client4.udp droppedPkWrongPort:count 0
attr interpolationmode none
attr recordingmode count
attr source packetDropReasonIsNoPortFound(packetDropped)
attr title "packets dropped (wrong port), count"
scalar project.client4.udp droppedPkBadChecksum:count 0
attr interpolationmode none
attr recordingmode count
attr source packetDropReasonIsIncorrectlyReceived(packetDropped)
attr title "packets dropped (checksum error), count"
par project.client4.tcp.conn-6 typename "\"inet.transportlayer.tcp.TcpConnection\""
par project.client4.tcp typename "\"inet.transportlayer.tcp.Tcp\""
par project.client4.tcp crcMode "\"declared\""
attr enum declared,computed
par project.client4.tcp advertisedWindow 7504
par project.client4.tcp delayedAcksEnabled false
par project.client4.tcp nagleEnabled true
par project.client4.tcp limitedTransmitEnabled false
par project.client4.tcp increasedIWEnabled false
par project.client4.tcp sackSupport false
par project.client4.tcp windowScalingSupport false
par project.client4.tcp windowScalingFactor -1
par project.client4.tcp timestampSupport false
par project.client4.tcp mss 536
par project.client4.tcp msl 120s
attr unit s
par project.client4.tcp tcpAlgorithmClass "\"TcpReno\""
attr examples TcpVegas,TcpWestwood,DcTcp,TcpNewReno,TcpReno,TcpTahoe,TcpNoCongestionControl
par project.client4.tcp dupthresh 3
par project.client4.tcp initialSsthresh 4294967295
par project.client4.tcp stopOperationExtraTime 0s
attr unit s
par project.client4.tcp stopOperationTimeout 2s
attr unit s
par project.client4.tcp ecnWillingness false
par project.client4.tcp dctcpGamma 0.0625
par project.client4.tn typename "\"inet.common.MessageDispatcher\""
par project.client4.tn displayStringTextFormat "\"processed %p pk (%l)\""
par project.client4.tn interfaceTableModule "\"project.client4.interfaceTable\""
par project.client4.tn forwardServiceRegistration true
par project.client4.tn forwardProtocolRegistration true
par project.client4.tn interfaceMapping {}
par project.client4.tn serviceMapping {}
par project.client4.tn protocolMapping {}
par project.client4.app[0] typename "\"inet.applications.tcpapp.TcpSessionApp\""
par project.client4.app[0] localAddress "\"\""
par project.client4.app[0] localPort -1
par project.client4.app[0] active true
par project.client4.app[0] connectAddress "\"server\""
par project.client4.app[0] connectPort 1000
par project.client4.app[0] dataTransferMode "\"bytecount\""
attr enum bytecount,object,bytestream
par project.client4.app[0] autoRead true
par project.client4.app[0] readSize -1B
attr unit B
par project.client4.app[0] readDelay -1s
attr unit s
par project.client4.app[0] tOpen 1s
attr unit s
par project.client4.app[0] tSend 1s
attr unit s
par project.client4.app[0] sendBytes 1000000B
attr unit B
par project.client4.app[0] sendScript "\"\""
par project.client4.app[0] tClose 2s
attr unit s
par project.client4.app[0] timeToLive -1
par project.client4.app[0] dscp -1
par project.client4.app[0] tos -1
par project.client4.app[0] stopOperationExtraTime -1s
attr unit s
par project.client4.app[0] stopOperationTimeout 2s
attr unit s
scalar project.client4.app[0] bytesRcvd 0
scalar project.client4.app[0] bytesSent 0
scalar project.client4.app[0] packetReceived:count 0
attr interpolationmode none
attr recordingmode count
attr source packetReceived
attr title "packets received, count"
scalar project.client4.app[0] packetReceived:sum(packetBytes) 0
attr interpolationmode none
attr recordingmode sum(packetBytes)
attr source packetReceived
attr title "packets received, sum(packetBytes)"
statistic project.client4.app[0] endToEndDelay:histogram
field count 0
field mean nan
field stddev nan
field min nan
field max nan
field sum 0
field sqrsum 0
attr interpolationmode none
attr recordingmode histogram
attr source dataAge(packetReceived)
attr title "end-to-end delay"
attr unit s
bin	-inf	0
bin	0	0
bin	1	0
statistic project.client4.app[0] endToEndDelay:weightedHistogram
field count 0
field mean nan
field stddev nan
field min nan
field max nan
field weights 0
field weightedSum 0
field sqrSumWeights 0
field weightedSqrSum 0
attr interpolationmode none
attr recordingmode weightedHistogram
attr source dataAge(packetReceived)
attr title "end-to-end delay, weightedHistogram"
attr unit s
bin	-inf	0
bin	0	0
bin	1	0
scalar project.client4.app[0] packetSent:count 0
attr interpolationmode none
attr recordingmode count
attr source packetSent
attr title "packets sent, count"
scalar project.client4.app[0] packetSent:sum(packetBytes) 0
attr interpolationmode none
attr recordingmode sum(packetBytes)
attr source packetSent
attr title "packets sent, sum(packetBytes)"
par project.client4.at typename "\"inet.common.MessageDispatcher\""
par project.client4.at displayStringTextFormat "\"processed %p pk (%l)\""
par project.client4.at interfaceTableModule "\"project.client4.interfaceTable\""
par project.client4.at forwardServiceRegistration true
par project.client4.at forwardProtocolRegistration true
par project.client4.at interfaceMapping {}
par project.client4.at serviceMapping {}
par project.client4.at protocolMapping {}
par project.client4 typename "\"inet.node.inet.StandardHost\""
par project.client4 hasStatus false
par project.client4 hasEnvironment false
par project.client4 osgModel "\"\""
par project.client4 osgModelColor "\"\""
par project.client4 canvasImage "\"\""
par project.client4 canvasImageColor "\"\""
par project.client4 recordPcap false
par project.client4 numPcapRecorders 0
par project.client4 numLoInterfaces 1
par project.client4 numWlanInterfaces 0
par project.client4 numEthInterfaces 0
par project.client4 numPppInterfaces 0
par project.client4 numTunInterfaces 0
par project.client4 numVirtInterfaces 0
par project.client4 fcsMode "\"declared\""
attr enum declared,computed
par project.client4 hasIpv4 true
par project.client4 hasIpv6 false
par project.client4 hasGn false
par project.client4 forwarding false
par project.client4 multicastForwarding false
par project.client4 hasUdp true
par project.client4 hasTcp true
par project.client4 hasSctp false
par project.client4 numApps 1
par project.configurator typename "\"inet.networklayer.configurator.ipv4.Ipv4NetworkConfigurator\""
par project.configurator minLinkWeight 0.001
par project.configurator configureIsolatedNetworksSeparatly false
par project.configurator config "<config>...</config> at content:1"
par project.configurator assignAddresses true
par project.configurator assignUniqueAddresses true
par project.configurator assignDisjunctSubnetAddresses true
par project.configurator addStaticRoutes true
par project.configurator addDefaultRoutes true
par project.configurator addSubnetRoutes true
par project.configurator addDirectRoutes true
par project.configurator optimizeRoutes true
par project.configurator updateRoutes false
par project.configurator dumpTopology false
par project.configurator dumpLinks false
par project.configurator dumpAddresses false
par project.configurator dumpRoutes false
par project.configurator dumpConfig "\"\""
par project typename "\"project.simulations.project\""

